Circuit: * C:\Users\Temporaria\Documents\GitHub\poente-boards\Telemetry\2020\Base Material\Current Sensing\12V_battery_sense\Simulation\Draft1.asc

Direct Newton iteration for .op point succeeded.
Heightened Def Con from 1.711e-005 ++++++++++++++++++++to 1.7111e-005
Heightened Def Con from 3.711e-005 ++++++++++++++++++++to 3.7111e-005
Heightened Def Con from 5.711e-005 ++++++++++++++++++++to 5.7111e-005
Heightened Def Con from 7.711e-005 ++++++++++++++++++++to 7.7111e-005
Heightened Def Con from 9.711e-005 ++++++++++++++++++++to 9.7111e-005
Heightened Def Con from 0.00011711 ++++++++++++++++++++to 0.000117111
Heightened Def Con from 0.00013711 +++++++++++to 0.00013711
Heightened Def Con from 0.00013711 ++++++++++++++++++++to 0.000137111
Heightened Def Con from 0.00015711 +++++++++++to 0.00015711
Heightened Def Con from 0.00015711 ++++++++++++++++++++to 0.000157111
Heightened Def Con from 0.00017711 +++++++++++to 0.00017711
Heightened Def Con from 0.00017711 +++++++++++to 0.00017711
Heightened Def Con from 0.00017711 ++++++++++++++++++++to 0.000177111
Heightened Def Con from 0.00019711 ++++++++++++to 0.00019711
Heightened Def Con from 0.00019711 ++++++++++++to 0.00019711
Heightened Def Con from 0.00019711 ++++++++++++++++++++to 0.000197111
Heightened Def Con from 0.00021711 ++++++++++++to 0.00021711
Heightened Def Con from 0.00021711 ++++++++++++to 0.00021711
Heightened Def Con from 0.00021711 ++++++++++++++++++++to 0.000217111
Heightened Def Con from 0.00023711 ++++++++++++to 0.00023711
Heightened Def Con from 0.00023711 ++++++++++++to 0.00023711
Heightened Def Con from 0.00023711 ++++++++++++++++++++to 0.000237111
Heightened Def Con from 0.00025711 ++++++++++++++++++++to 0.000257111
Heightened Def Con from 0.00027711 ++++++++++++++++++++to 0.000277111
Heightened Def Con from 0.00029711 ++++++++++++++++++++to 0.000297111
Heightened Def Con from 0.00031711 ++++++++++++++++++++to 0.000317111
Heightened Def Con from 0.00033711 ++++++++++++++++++++to 0.000337111
Heightened Def Con from 0.00035711 ++++++++++++++++++++to 0.000357111
Heightened Def Con from 0.00037711 ++++++++++++++++++++to 0.000377111
Heightened Def Con from 0.00039711 ++++++++++++++++++++to 0.000397111
Heightened Def Con from 0.00041711 ++++++++++++++++++++to 0.000417111
Heightened Def Con from 0.00043711 ++++++++++++++++++++to 0.000437111
Heightened Def Con from 0.00045711 ++++++++++++++++++++to 0.000457111
Heightened Def Con from 0.00047711 ++++++++++++++++++++to 0.000477111
Heightened Def Con from 0.00049711 ++++++++++++++++++++to 0.000497111
Heightened Def Con from 0.00051711 ++++++++++++++++++++to 0.000517111
Heightened Def Con from 0.00053711 ++++++++++++++++++++to 0.000537111
Heightened Def Con from 0.00055711 ++++++++++++++++++++to 0.000557111
Heightened Def Con from 0.00057711 ++++++++++++++++++++to 0.000577111
Heightened Def Con from 0.00059711 ++++++++++++++++++++to 0.000597111
Heightened Def Con from 0.00061711 ++++++++++++++++++++to 0.000617111
Heightened Def Con from 0.00063711 ++++++++++++++++++++to 0.000637111
Heightened Def Con from 0.00065711 ++++++++++++++++++++to 0.000657111
Heightened Def Con from 0.00067711 ++++++++++++++++++++to 0.000677111
Heightened Def Con from 0.00069711 ++++++++++++++++++++to 0.000697111
Heightened Def Con from 0.00071711 ++++++++++++++++++++to 0.000717111
Heightened Def Con from 0.00073711 ++++++++++++++++++++to 0.000737111
Heightened Def Con from 0.00075711 ++++++++++++++++++++to 0.000757111
Heightened Def Con from 0.00077711 ++++++++++++++++++++to 0.000777111
Heightened Def Con from 0.00079711 ++++++++++++++++++++to 0.000797111
Heightened Def Con from 0.00081711 ++++++++++++++++++++to 0.000817111
Heightened Def Con from 0.00083711 ++++++++++++++++++++to 0.000837111
Heightened Def Con from 0.00085711 ++++++++++++++++++++to 0.000857111
Heightened Def Con from 0.00087711 ++++++++++++++++++++to 0.000877111
Heightened Def Con from 0.00089711 ++++++++++++++++++++to 0.000897111
Heightened Def Con from 0.00091711 ++++++++++++++++++++to 0.000917111
Heightened Def Con from 0.00093711 ++++++++++++++++++++to 0.000937111
Heightened Def Con from 0.00095711 ++++++++++++++++++++to 0.000957111
Heightened Def Con from 0.00097711 ++++++++++++++++++++to 0.000977111
Heightened Def Con from 0.00099711 ++++++++++++++++++++to 0.000997111
Heightened Def Con from 0.00101711 ++++++++++++++++++++to 0.00101711
Heightened Def Con from 0.00103711 ++++++++++++++++++++to 0.00103711
Heightened Def Con from 0.00105711 ++++++++++++++++++++to 0.00105711
Heightened Def Con from 0.00107711 ++++++++++++++++++++to 0.00107711
Heightened Def Con from 0.00109711 ++++++++++++++++++++to 0.00109711
Heightened Def Con from 0.00111711 ++++++++++++++++++++to 0.00111711
Heightened Def Con from 0.00113711 ++++++++++++++++++++to 0.00113711
Heightened Def Con from 0.00115711 ++++++++++++++++++++to 0.00115711
Heightened Def Con from 0.00117711 ++++++++++++++++++++to 0.00117711
Heightened Def Con from 0.00119711 ++++++++++++++++++++to 0.00119711
Heightened Def Con from 0.00121711 ++++++++++++++++++++to 0.00121711
Heightened Def Con from 0.00123711 ++++++++++++++++++++to 0.00123711
Heightened Def Con from 0.00125711 ++++++++++++++++++++to 0.00125711
Heightened Def Con from 0.00127711 ++++++++++++++++++++to 0.00127711
Heightened Def Con from 0.00129711 ++++++++++++++++++++to 0.00129711
Heightened Def Con from 0.00131711 ++++++++++++++++++++to 0.00131711
Heightened Def Con from 0.00133711 ++++++++++++++++++++to 0.00133711
Heightened Def Con from 0.00135711 ++++++++++++++++++++to 0.00135711
Heightened Def Con from 0.00137711 ++++++++++++++++++++to 0.00137711
Heightened Def Con from 0.00139711 ++++++++++++++++++++to 0.00139711
Heightened Def Con from 0.00141711 ++++++++++++++++++++to 0.00141711
Heightened Def Con from 0.00143711 ++++++++++++++++++++to 0.00143711
Heightened Def Con from 0.00145711 ++++++++++++++++++++to 0.00145711
Heightened Def Con from 0.00147711 ++++++++++++++++++++to 0.00147711
Heightened Def Con from 0.00149711 ++++++++++++++++++++to 0.00149711
Heightened Def Con from 0.00151711 ++++++++++++++++++++to 0.00151711
Heightened Def Con from 0.00153711 ++++++++++++++++++++to 0.00153711
Heightened Def Con from 0.00155711 ++++++++++++++++++++to 0.00155711
Heightened Def Con from 0.00157711 ++++++++++++++++++++to 0.00157711
Heightened Def Con from 0.00159711 ++++++++++++++++++++to 0.00159711
Heightened Def Con from 0.00161711 ++++++++++++++++++++to 0.00161711
Heightened Def Con from 0.00163711 ++++++++++++++++++++to 0.00163711
Heightened Def Con from 0.00165711 ++++++++++++++++++++to 0.00165711
Heightened Def Con from 0.00167711 ++++++++++++++++++++to 0.00167711
Heightened Def Con from 0.00169711 ++++++++++++++++++++to 0.00169711
Heightened Def Con from 0.00171711 ++++++++++++++++++++to 0.00171711
Heightened Def Con from 0.00173711 ++++++++++++++++++++to 0.00173711
Heightened Def Con from 0.00175711 ++++++++++++++++++++to 0.00175711
Heightened Def Con from 0.00177711 ++++++++++++++++++++to 0.00177711
Heightened Def Con from 0.00179711 ++++++++++++++++++++to 0.00179711
Heightened Def Con from 0.00181711 ++++++++++++++++++++to 0.00181711
Heightened Def Con from 0.00183711 ++++++++++++++++++++to 0.00183711
Heightened Def Con from 0.00185711 ++++++++++++++++++++to 0.00185711
Heightened Def Con from 0.00187711 ++++++++++++++++++++to 0.00187711
Heightened Def Con from 0.00189711 ++++++++++++++++++++to 0.00189711
Heightened Def Con from 0.00191711 ++++++++++++++++++++to 0.00191711
Heightened Def Con from 0.00193711 ++++++++++++++++++++to 0.00193711
Heightened Def Con from 0.00195711 to 0.00195711
Heightened Def Con from 0.00195711 +++++++++++++to 0.00195711
Heightened Def Con from 0.00195711 ++++++++++++++++++++to 0.00195711
Heightened Def Con from 0.00197711 ++++++++++++++++++++to 0.00197711
Heightened Def Con from 0.00199711 ++++++++++++++++++++to 0.00199711
Heightened Def Con from 0.00201711 ++++++++++++++++++++to 0.00201711
Heightened Def Con from 0.00203711 ++++++++++++++++++++to 0.00203711
Heightened Def Con from 0.00205711 ++++++++++++++++++++to 0.00205711
Heightened Def Con from 0.00207711 ++++++++++++++++++++to 0.00207711
Heightened Def Con from 0.00209711 ++++++++++++++++++++to 0.00209711
Heightened Def Con from 0.00211711 ++++++++++++++++++++to 0.00211711
Heightened Def Con from 0.00213711 ++++++++++++++++++++to 0.00213711
Heightened Def Con from 0.00215711 ++++++++++++++++++++to 0.00215711
Heightened Def Con from 0.00217711 ++++++++++++++++++++to 0.00217711
Heightened Def Con from 0.00219711 ++++++++++++++++++++to 0.00219711
Heightened Def Con from 0.00221711 ++++++++++++++++++++to 0.00221711
Heightened Def Con from 0.00223711 ++++++++++++++++++++to 0.00223711
Heightened Def Con from 0.00225711 ++++++++++++++++++++to 0.00225711
Heightened Def Con from 0.00227711 ++++++++++++++++++++to 0.00227711
Heightened Def Con from 0.00229711 ++++++++++++++++++++to 0.00229711
Heightened Def Con from 0.00231711 ++++++++++++++++++++to 0.00231711
Heightened Def Con from 0.00233711 ++++++++++++++++++++to 0.00233711
Heightened Def Con from 0.00235711 ++++++++++++++++++++to 0.00235711
Heightened Def Con from 0.00237711 ++++++++++++++++++++to 0.00237711
Heightened Def Con from 0.00239711 ++++++++++++++++++++to 0.00239711
Heightened Def Con from 0.00241711 ++++++++++++++++++++to 0.00241711
Heightened Def Con from 0.00243711 ++++++++++++++++++++to 0.00243711
Heightened Def Con from 0.00245711 ++++++++++++++++++++to 0.00245711
Heightened Def Con from 0.00247711 ++++++++++++++++++++to 0.00247711
Heightened Def Con from 0.00249711 ++++++++++++++++++++to 0.00249711
Heightened Def Con from 0.00251711 ++++++++++++++++++++to 0.00251711
Heightened Def Con from 0.00253711 ++++++++++++++++++++to 0.00253711
Heightened Def Con from 0.00255711 ++++++++++++++++++++to 0.00255711
Heightened Def Con from 0.00257711 ++++++++++++++++++++to 0.00257711
Heightened Def Con from 0.00259711 ++++++++++++++++++++to 0.00259711
Heightened Def Con from 0.00261711 ++++++++++++++++++++to 0.00261711
Heightened Def Con from 0.00263711 ++++++++++++++++++++to 0.00263711
Heightened Def Con from 0.00265711 ++++++++++++++++++++to 0.00265711
Heightened Def Con from 0.00267711 ++++++++++++++++++++to 0.00267711
Heightened Def Con from 0.00269711 ++++++++++++++++++++to 0.00269711
Heightened Def Con from 0.00271711 ++++++++++++++++++++to 0.00271711
Heightened Def Con from 0.00273711 ++++++++++++++++++++to 0.00273711
Heightened Def Con from 0.00275711 ++++++++++++++++++++to 0.00275711
Heightened Def Con from 0.00277711 ++++++++++++++++++++to 0.00277711
Heightened Def Con from 0.00279711 ++++++++++++++++++++to 0.00279711
Heightened Def Con from 0.00281711 ++++++++++++++++++++to 0.00281711
Heightened Def Con from 0.00283711 ++++++++++++++++++++to 0.00283711
Heightened Def Con from 0.00285711 ++++++++++++++++++++to 0.00285711
Heightened Def Con from 0.00287711 ++++++++++++++++++++to 0.00287711
Heightened Def Con from 0.00289711 ++++++++++++++++++++to 0.00289711
Heightened Def Con from 0.00291711 ++++++++++++++++++++to 0.00291711
Heightened Def Con from 0.00293711 ++++++++++++++++++++to 0.00293711
Heightened Def Con from 0.00295711 ++++++++++++++++++++to 0.00295711
Heightened Def Con from 0.00297711 ++++++++++++++++++++to 0.00297711
Heightened Def Con from 0.00299711 ++++++++++++++++++++to 0.00299711
Heightened Def Con from 0.00301711 ++++++++++++++++++++to 0.00301711
Heightened Def Con from 0.00303711 ++++++++++++++++++++to 0.00303711
Heightened Def Con from 0.00305711 ++++++++++++++++++++to 0.00305711
Heightened Def Con from 0.00307711 ++++++++++++++++++++to 0.00307711
Heightened Def Con from 0.00309711 ++++++++++++++++++++to 0.00309711
Heightened Def Con from 0.00311711 ++++++++++++++++++++to 0.00311711
Heightened Def Con from 0.00313711 ++++++++++++++++++++to 0.00313711
Heightened Def Con from 0.00315711 ++++++++++++++++++++to 0.00315711
Heightened Def Con from 0.00317711 ++++++++++++++++++++to 0.00317711
Heightened Def Con from 0.00319711 ++++++++++++++++++++to 0.00319711
Heightened Def Con from 0.00321711 ++++++++++++++++++++to 0.00321711
Heightened Def Con from 0.00323711 ++++++++++++++++++++to 0.00323711
Heightened Def Con from 0.00325711 ++++++++++++++++++++to 0.00325711
Heightened Def Con from 0.00327711 ++++++++++++++++++++to 0.00327711
Heightened Def Con from 0.00329711 ++++++++++++++++++++to 0.00329711
Heightened Def Con from 0.00331711 ++++++++++++++++++++to 0.00331711
Heightened Def Con from 0.00333711 ++++++++++++++++++++to 0.00333711
Heightened Def Con from 0.00335711 ++++++++++++++++++++to 0.00335711
Heightened Def Con from 0.00337711 ++++++++++++++++++++to 0.00337711
Heightened Def Con from 0.00339711 ++++++++++++++++++++to 0.00339711
Heightened Def Con from 0.00341711 ++++++++++++++++++++to 0.00341711
Heightened Def Con from 0.00343711 ++++++++++++++++++++to 0.00343711
Heightened Def Con from 0.00345711 ++++++++++++++++++++to 0.00345711
Heightened Def Con from 0.00347711 ++++++++++++++++++++to 0.00347711
Heightened Def Con from 0.00349711 ++++++++++++++++++++to 0.00349711
Heightened Def Con from 0.00351711 ++++++++++++++++++++to 0.00351711
Heightened Def Con from 0.00353711 ++++++++++++++++++++to 0.00353711
Heightened Def Con from 0.00355711 ++++++++++++++++++++to 0.00355711
Heightened Def Con from 0.00357711 ++++++++++++++++++++to 0.00357711
Heightened Def Con from 0.00359711 ++++++++++++++++++++to 0.00359711
Heightened Def Con from 0.00361711 ++++++++++++++++++++to 0.00361711
Heightened Def Con from 0.00363711 ++++++++++++++++++++to 0.00363711
Heightened Def Con from 0.00365711 ++++++++++++++++++++to 0.00365711
Heightened Def Con from 0.00367711 ++++++++++++++++++++to 0.00367711
Heightened Def Con from 0.00369711 ++++++++++++++++++++to 0.00369711
Heightened Def Con from 0.00371711 ++++++++++++++++++++to 0.00371711
Heightened Def Con from 0.00373711 ++++++++++++++++++++to 0.00373711
Heightened Def Con from 0.00375711 ++++++++++++++++++++to 0.00375711
Heightened Def Con from 0.00377711 ++++++++++++++++++++to 0.00377711
Heightened Def Con from 0.00379711 ++++++++++++++++++++to 0.00379711
Heightened Def Con from 0.00381711 ++++++++++++++++++++to 0.00381711
Heightened Def Con from 0.00383711 ++++++++++++++++++++to 0.00383711
Heightened Def Con from 0.00385711 ++++++++++++++++++++to 0.00385711
Heightened Def Con from 0.00387711 ++++++++++++++++++++to 0.00387711
Heightened Def Con from 0.00389711 ++++++++++++++++++++to 0.00389711
Heightened Def Con from 0.00391711 to 0.00391711
Heightened Def Con from 0.00391711 +++++++++++++to 0.00391711
Heightened Def Con from 0.00391711 ++++++++++++++++++++to 0.00391711
Heightened Def Con from 0.00393711 ++++++++++++++++++++to 0.00393711
Heightened Def Con from 0.00395711 ++++++++++++++++++++to 0.00395711
Heightened Def Con from 0.00397711 ++++++++++++++++++++to 0.00397711
Heightened Def Con from 0.00399711 ++++++++++++++++++++to 0.00399711
Heightened Def Con from 0.00401711 ++++++++++++++++++++to 0.00401711
Heightened Def Con from 0.00403711 ++++++++++++++++++++to 0.00403711
Heightened Def Con from 0.00405711 ++++++++++++++++++++to 0.00405711
Heightened Def Con from 0.00407711 ++++++++++++++++++++to 0.00407711
Heightened Def Con from 0.00409711 ++++++++++++++++++++to 0.00409711
Heightened Def Con from 0.00411711 ++++++++++++++++++++to 0.00411711
Heightened Def Con from 0.00413711 ++++++++++++++++++++to 0.00413711
Heightened Def Con from 0.00415711 ++++++++++++++++++++to 0.00415711
Heightened Def Con from 0.00417711 ++++++++++++++++++++to 0.00417711
Heightened Def Con from 0.00419711 ++++++++++++++++++++to 0.00419711
Heightened Def Con from 0.00421711 ++++++++++++++++++++to 0.00421711
Heightened Def Con from 0.00423711 ++++++++++++++++++++to 0.00423711
Heightened Def Con from 0.00425711 ++++++++++++++++++++to 0.00425711
Heightened Def Con from 0.00427711 ++++++++++++++++++++to 0.00427711
Heightened Def Con from 0.00429711 ++++++++++++++++++++to 0.00429711
Heightened Def Con from 0.00431711 ++++++++++++++++++++to 0.00431711
Heightened Def Con from 0.00433711 ++++++++++++++++++++to 0.00433711
Heightened Def Con from 0.00435711 ++++++++++++++++++++to 0.00435711
Heightened Def Con from 0.00437711 ++++++++++++++++++++to 0.00437711
Heightened Def Con from 0.00439711 ++++++++++++++++++++to 0.00439711
Heightened Def Con from 0.00441711 ++++++++++++++++++++to 0.00441711
Heightened Def Con from 0.00443711 ++++++++++++++++++++to 0.00443711
Heightened Def Con from 0.00445711 ++++++++++++++++++++to 0.00445711
Heightened Def Con from 0.00447711 ++++++++++++++++++++to 0.00447711
Heightened Def Con from 0.00449711 ++++++++++++++++++++to 0.00449711
Heightened Def Con from 0.00451711 ++++++++++++++++++++to 0.00451711
Heightened Def Con from 0.00453711 ++++++++++++++++++++to 0.00453711
Heightened Def Con from 0.00455711 ++++++++++++++++++++to 0.00455711
Heightened Def Con from 0.00457711 ++++++++++++++++++++to 0.00457711
Heightened Def Con from 0.00459711 ++++++++++++++++++++to 0.00459711
Heightened Def Con from 0.00461711 ++++++++++++++++++++to 0.00461711
Heightened Def Con from 0.00463711 ++++++++++++++++++++to 0.00463711
Heightened Def Con from 0.00465711 ++++++++++++++++++++to 0.00465711
Heightened Def Con from 0.00467711 ++++++++++++++++++++to 0.00467711
Heightened Def Con from 0.00469711 ++++++++++++++++++++to 0.00469711
Heightened Def Con from 0.00471711 ++++++++++++++++++++to 0.00471711
Heightened Def Con from 0.00473711 ++++++++++++++++++++to 0.00473711
Heightened Def Con from 0.00475711 ++++++++++++++++++++to 0.00475711
Heightened Def Con from 0.00477711 ++++++++++++++++++++to 0.00477711
Heightened Def Con from 0.00479711 ++++++++++++++++++++to 0.00479711
Heightened Def Con from 0.00481711 ++++++++++++++++++++to 0.00481711
Heightened Def Con from 0.00483711 ++++++++++++++++++++to 0.00483711
Heightened Def Con from 0.00485711 ++++++++++++++++++++to 0.00485711
Heightened Def Con from 0.00487711 ++++++++++++++++++++to 0.00487711
Heightened Def Con from 0.00489711 ++++++++++++++++++++to 0.00489711
Heightened Def Con from 0.00491711 ++++++++++++++++++++to 0.00491711
Heightened Def Con from 0.00493711 ++++++++++++++++++++to 0.00493711
Heightened Def Con from 0.00495711 ++++++++++++++++++++to 0.00495711
Heightened Def Con from 0.00497711 ++++++++++++++++++++to 0.00497711
Heightened Def Con from 0.00499711 ++++++++++++++++++++to 0.00499711
Heightened Def Con from 0.00501711 ++++++++++++++++++++to 0.00501711
Heightened Def Con from 0.00503711 ++++++++++++++++++++to 0.00503711
Heightened Def Con from 0.00505711 ++++++++++++++++++++to 0.00505711
Heightened Def Con from 0.00507711 ++++++++++++++++++++to 0.00507711
Heightened Def Con from 0.00509711 ++++++++++++++++++++to 0.00509711
Heightened Def Con from 0.00511711 ++++++++++++++++++++to 0.00511711
Heightened Def Con from 0.00513711 ++++++++++++++++++++to 0.00513711
Heightened Def Con from 0.00515711 ++++++++++++++++++++to 0.00515711
Heightened Def Con from 0.00517711 ++++++++++++++++++++to 0.00517711
Heightened Def Con from 0.00519711 ++++++++++++++++++++to 0.00519711
Heightened Def Con from 0.00521711 ++++++++++++++++++++to 0.00521711
Heightened Def Con from 0.00523711 ++++++++++++++++++++to 0.00523711
Heightened Def Con from 0.00525711 ++++++++++++++++++++to 0.00525711
Heightened Def Con from 0.00527711 ++++++++++++++++++++to 0.00527711
Heightened Def Con from 0.00529711 ++++++++++++++++++++to 0.00529711
Heightened Def Con from 0.00531711 ++++++++++++++++++++to 0.00531711
Heightened Def Con from 0.00533711 ++++++++++++++++++++to 0.00533711
Heightened Def Con from 0.00535711 ++++++++++++++++++++to 0.00535711
Heightened Def Con from 0.00537711 ++++++++++++++++++++to 0.00537711
Heightened Def Con from 0.00539711 ++++++++++++++++++++to 0.00539711
Heightened Def Con from 0.00541711 ++++++++++++++++++++to 0.00541711
Heightened Def Con from 0.00543711 ++++++++++++++++++++to 0.00543711
Heightened Def Con from 0.00545711 ++++++++++++++++++++to 0.00545711
Heightened Def Con from 0.00547711 ++++++++++++++++++++to 0.00547711
Heightened Def Con from 0.00549711 ++++++++++++++++++++to 0.00549711
Heightened Def Con from 0.00551711 ++++++++++++++++++++to 0.00551711
Heightened Def Con from 0.00553711 ++++++++++++++++++++to 0.00553711
Heightened Def Con from 0.00555711 ++++++++++++++++++++to 0.00555711
Heightened Def Con from 0.00557711 ++++++++++++++++++++to 0.00557711
Heightened Def Con from 0.00559711 ++++++++++++++++++++to 0.00559711
Heightened Def Con from 0.00561711 ++++++++++++++++++++to 0.00561711
Heightened Def Con from 0.00563711 ++++++++++++++++++++to 0.00563711
Heightened Def Con from 0.00565711 ++++++++++++++++++++to 0.00565711
Heightened Def Con from 0.00567711 ++++++++++++++++++++to 0.00567711
Heightened Def Con from 0.00569711 ++++++++++++++++++++to 0.00569711
Heightened Def Con from 0.00571711 ++++++++++++++++++++to 0.00571711
Heightened Def Con from 0.00573711 ++++++++++++++++++++to 0.00573711
Heightened Def Con from 0.00575711 ++++++++++++++++++++to 0.00575711
Heightened Def Con from 0.00577711 ++++++++++++++++++++to 0.00577711
Heightened Def Con from 0.00579711 ++++++++++++++++++++to 0.00579711
Heightened Def Con from 0.00581711 ++++++++++++++++++++to 0.00581711
Heightened Def Con from 0.00583711 ++++++++++++++++++++to 0.00583711
Heightened Def Con from 0.00585711 ++++++++++++++++++++to 0.00585711
Heightened Def Con from 0.00587711 ++++++++++++++++++++to 0.00587711
Heightened Def Con from 0.00589711 ++++++++++++++++++++to 0.00589711
Heightened Def Con from 0.00591711 ++++++++++++++++++++to 0.00591711
Heightened Def Con from 0.00593711 ++++++++++++++++++++to 0.00593711
Heightened Def Con from 0.00595711 ++++++++++++++++++++to 0.00595711
Heightened Def Con from 0.00597711 ++++++++++++++++++++to 0.00597711
Heightened Def Con from 0.00599711 ++++++++++++++++++++to 0.00599711
Heightened Def Con from 0.00601711 ++++++++++++++++++++to 0.00601711
Heightened Def Con from 0.00603711 ++++++++++++++++++++to 0.00603711
Heightened Def Con from 0.00605711 ++++++++++++++++++++to 0.00605711
Heightened Def Con from 0.00607711 ++++++++++++++++++++to 0.00607711
Heightened Def Con from 0.00609711 ++++++++++++++++++++to 0.00609711
Heightened Def Con from 0.00611711 ++++++++++++++++++++to 0.00611711
Heightened Def Con from 0.00613711 ++++++++++++++++++++to 0.00613711
Heightened Def Con from 0.00615711 ++++++++++++++++++++to 0.00615711
Heightened Def Con from 0.00617711 ++++++++++++++++++++to 0.00617711
Heightened Def Con from 0.00619711 ++++++++++++++++++++to 0.00619711
Heightened Def Con from 0.00621711 ++++++++++++++++++++to 0.00621711
Heightened Def Con from 0.00623711 ++++++++++++++++++++to 0.00623711
Heightened Def Con from 0.00625711 ++++++++++++++++++++to 0.00625711
Heightened Def Con from 0.00627711 ++++++++++++++++++++to 0.00627711
Heightened Def Con from 0.00629711 ++++++++++++++++++++to 0.00629711
Heightened Def Con from 0.00631711 ++++++++++++++++++++to 0.00631711
Heightened Def Con from 0.00633711 ++++++++++++++++++++to 0.00633711
Heightened Def Con from 0.00635711 ++++++++++++++++++++to 0.00635711
Heightened Def Con from 0.00637711 ++++++++++++++++++++to 0.00637711
Heightened Def Con from 0.00639711 ++++++++++++++++++++to 0.00639711
Heightened Def Con from 0.00641711 ++++++++++++++++++++to 0.00641711
Heightened Def Con from 0.00643711 ++++++++++++++++++++to 0.00643711
Heightened Def Con from 0.00645711 ++++++++++++++++++++to 0.00645711
Heightened Def Con from 0.00647711 ++++++++++++++++++++to 0.00647711
Heightened Def Con from 0.00649711 ++++++++++++++++++++to 0.00649711
Heightened Def Con from 0.00651711 ++++++++++++++++++++to 0.00651711
Heightened Def Con from 0.00653711 ++++++++++++++++++++to 0.00653711
Heightened Def Con from 0.00655711 ++++++++++++++++++++to 0.00655711
Heightened Def Con from 0.00657711 ++++++++++++++++++++to 0.00657711
Heightened Def Con from 0.00659711 ++++++++++++++++++++to 0.00659711
Heightened Def Con from 0.00661711 ++++++++++++++++++++to 0.00661711
Heightened Def Con from 0.00663711 ++++++++++++++++++++to 0.00663711
Heightened Def Con from 0.00665711 ++++++++++++++++++++to 0.00665711
Heightened Def Con from 0.00667711 ++++++++++++++++++++to 0.00667711
Heightened Def Con from 0.00669711 ++++++++++++++++++++to 0.00669711
Heightened Def Con from 0.00671711 ++++++++++++++++++++to 0.00671711
Heightened Def Con from 0.00673711 ++++++++++++++++++++to 0.00673711
Heightened Def Con from 0.00675711 ++++++++++++++++++++to 0.00675711
Heightened Def Con from 0.00677711 ++++++++++++++++++++to 0.00677711
Heightened Def Con from 0.00679711 ++++++++++++++++++++to 0.00679711
Heightened Def Con from 0.00681711 ++++++++++++++++++++to 0.00681711
Heightened Def Con from 0.00683711 ++++++++++++++++++++to 0.00683711
Heightened Def Con from 0.00685711 ++++++++++++++++++++to 0.00685711
Heightened Def Con from 0.00687711 ++++++++++++++++++++to 0.00687711
Heightened Def Con from 0.00689711 ++++++++++++++++++++to 0.00689711
Heightened Def Con from 0.00691711 ++++++++++++++++++++to 0.00691711
Heightened Def Con from 0.00693711 ++++++++++++++++++++to 0.00693711
Heightened Def Con from 0.00695711 ++++++++++++++++++++to 0.00695711
Heightened Def Con from 0.00697711 ++++++++++++++++++++to 0.00697711
Heightened Def Con from 0.00699711 ++++++++++++++++++++to 0.00699711
Heightened Def Con from 0.00701711 ++++++++++++++++++++to 0.00701711
Heightened Def Con from 0.00703711 ++++++++++++++++++++to 0.00703711
Heightened Def Con from 0.00705711 ++++++++++++++++++++to 0.00705711
Heightened Def Con from 0.00707711 ++++++++++++++++++++to 0.00707711
Heightened Def Con from 0.00709711 ++++++++++++++++++++to 0.00709711
Heightened Def Con from 0.00711711 ++++++++++++++++++++to 0.00711711
Heightened Def Con from 0.00713711 ++++++++++++++++++++to 0.00713711
Heightened Def Con from 0.00715711 ++++++++++++++++++++to 0.00715711
Heightened Def Con from 0.00717711 ++++++++++++++++++++to 0.00717711
Heightened Def Con from 0.00719711 ++++++++++++++++++++to 0.00719711
Heightened Def Con from 0.00721711 ++++++++++++++++++++to 0.00721711
Heightened Def Con from 0.00723711 ++++++++++++++++++++to 0.00723711
Heightened Def Con from 0.00725711 ++++++++++++++++++++to 0.00725711
Heightened Def Con from 0.00727711 ++++++++++++++++++++to 0.00727711
Heightened Def Con from 0.00729711 ++++++++++++++++++++to 0.00729711
Heightened Def Con from 0.00731711 ++++++++++++++++++++to 0.00731711
Heightened Def Con from 0.00733711 ++++++++++++++++++++to 0.00733711
Heightened Def Con from 0.00735711 ++++++++++++++++++++to 0.00735711
Heightened Def Con from 0.00737711 ++++++++++++++++++++to 0.00737711
Heightened Def Con from 0.00739711 ++++++++++++++++++++to 0.00739711
Heightened Def Con from 0.00741711 ++++++++++++++++++++to 0.00741711
Heightened Def Con from 0.00743711 ++++++++++++++++++++to 0.00743711
Heightened Def Con from 0.00745711 ++++++++++++++++++++to 0.00745711
Heightened Def Con from 0.00747711 ++++++++++++++++++++to 0.00747711
Heightened Def Con from 0.00749711 ++++++++++++++++++++to 0.00749711
Heightened Def Con from 0.00751711 ++++++++++++++++++++to 0.00751711
Heightened Def Con from 0.00753711 ++++++++++++++++++++to 0.00753711
Heightened Def Con from 0.00755711 ++++++++++++++++++++to 0.00755711
Heightened Def Con from 0.00757711 ++++++++++++++++++++to 0.00757711
Heightened Def Con from 0.00759711 ++++++++++++++++++++to 0.00759711
Heightened Def Con from 0.00761711 ++++++++++++++++++++to 0.00761711
Heightened Def Con from 0.00763711 ++++++++++++++++++++to 0.00763711
Heightened Def Con from 0.00765711 ++++++++++++++++++++to 0.00765711
Heightened Def Con from 0.00767711 ++++++++++++++++++++to 0.00767711
Heightened Def Con from 0.00769711 ++++++++++++++++++++to 0.00769711
Heightened Def Con from 0.00771711 ++++++++++++++++++++to 0.00771711
Heightened Def Con from 0.00773711 ++++++++++++++++++++to 0.00773711
Heightened Def Con from 0.00775711 ++++++++++++++++++++to 0.00775711
Heightened Def Con from 0.00777711 ++++++++++++++++++++to 0.00777711
Heightened Def Con from 0.00779711 ++++++++++++++++++++to 0.00779711
Heightened Def Con from 0.00781711 ++++++++++++++++++++to 0.00781711
Heightened Def Con from 0.00783711 ++++++++++++++++++++to 0.00783711
Heightened Def Con from 0.00785711 ++++++++++++++++++++to 0.00785711
Heightened Def Con from 0.00787711 ++++++++++++++++++++to 0.00787711
Heightened Def Con from 0.00789711 ++++++++++++++++++++to 0.00789711
Heightened Def Con from 0.00791711 ++++++++++++++++++++to 0.00791711
Heightened Def Con from 0.00793711 ++++++++++++++++++++to 0.00793711
Heightened Def Con from 0.00795711 ++++++++++++++++++++to 0.00795711
Heightened Def Con from 0.00797711 ++++++++++++++++++++to 0.00797711
Heightened Def Con from 0.00799711 ++++++++++++++++++++to 0.00799711
Heightened Def Con from 0.00801711 ++++++++++++++++++++to 0.00801711
Heightened Def Con from 0.00803711 ++++++++++++++++++++to 0.00803711
Heightened Def Con from 0.00805711 ++++++++++++++++++++to 0.00805711
Heightened Def Con from 0.00807711 ++++++++++++++++++++to 0.00807711
Heightened Def Con from 0.00809711 ++++++++++++++++++++to 0.00809711
Heightened Def Con from 0.00811711 ++++++++++++++++++++to 0.00811711
Heightened Def Con from 0.00813711 ++++++++++++++++++++to 0.00813711
Heightened Def Con from 0.00815711 ++++++++++++++++++++to 0.00815711
Heightened Def Con from 0.00817711 ++++++++++++++++++++to 0.00817711
Heightened Def Con from 0.00819711 ++++++++++++++++++++to 0.00819711
Heightened Def Con from 0.00821711 ++++++++++++++++++++to 0.00821711
Heightened Def Con from 0.00823711 ++++++++++++++++++++to 0.00823711
Heightened Def Con from 0.00825711 ++++++++++++++++++++to 0.00825711
Heightened Def Con from 0.00827711 ++++++++++++++++++++to 0.00827711
Heightened Def Con from 0.00829711 ++++++++++++++++++++to 0.00829711
Heightened Def Con from 0.00831711 ++++++++++++++++++++to 0.00831711
Heightened Def Con from 0.00833711 ++++++++++++++++++++to 0.00833711
Heightened Def Con from 0.00835711 ++++++++++++++++++++to 0.00835711
Heightened Def Con from 0.00837711 ++++++++++++++++++++to 0.00837711
Heightened Def Con from 0.00839711 ++++++++++++++++++++to 0.00839711
Heightened Def Con from 0.00841711 ++++++++++++++++++++to 0.00841711
Heightened Def Con from 0.00843711 ++++++++++++++++++++to 0.00843711
Heightened Def Con from 0.00845711 ++++++++++++++++++++to 0.00845711
Heightened Def Con from 0.00847711 ++++++++++++++++++++to 0.00847711
Heightened Def Con from 0.00849711 ++++++++++++++++++++to 0.00849711
Heightened Def Con from 0.00851711 ++++++++++++++++++++to 0.00851711
Heightened Def Con from 0.00853711 ++++++++++++++++++++to 0.00853711
Heightened Def Con from 0.00855711 ++++++++++++++++++++to 0.00855711
Heightened Def Con from 0.00857711 ++++++++++++++++++++to 0.00857711
Heightened Def Con from 0.00859711 ++++++++++++++++++++to 0.00859711
Heightened Def Con from 0.00861711 ++++++++++++++++++++to 0.00861711
Heightened Def Con from 0.00863711 ++++++++++++++++++++to 0.00863711
Heightened Def Con from 0.00865711 ++++++++++++++++++++to 0.00865711
Heightened Def Con from 0.00867711 ++++++++++++++++++++to 0.00867711
Heightened Def Con from 0.00869711 ++++++++++++++++++++to 0.00869711
Heightened Def Con from 0.00871711 ++++++++++++++++++++to 0.00871711
Heightened Def Con from 0.00873711 ++++++++++++++++++++to 0.00873711
Heightened Def Con from 0.00875711 ++++++++++++++++++++to 0.00875711
Heightened Def Con from 0.00877711 ++++++++++++++++++++to 0.00877711
Heightened Def Con from 0.00879711 ++++++++++++++++++++to 0.00879711
Heightened Def Con from 0.00881711 ++++++++++++++++++++to 0.00881711
Heightened Def Con from 0.00883711 ++++++++++++++++++++to 0.00883711
Heightened Def Con from 0.00885711 ++++++++++++++++++++to 0.00885711
Heightened Def Con from 0.00887711 ++++++++++++++++++++to 0.00887711
Heightened Def Con from 0.00889711 ++++++++++++++++++++to 0.00889711
Heightened Def Con from 0.00891711 ++++++++++++++++++++to 0.00891711
Heightened Def Con from 0.00893711 ++++++++++++++++++++to 0.00893711
Heightened Def Con from 0.00895711 ++++++++++++++++++++to 0.00895711
Heightened Def Con from 0.00897711 ++++++++++++++++++++to 0.00897711
Heightened Def Con from 0.00899711 ++++++++++++++++++++to 0.00899711
Heightened Def Con from 0.00901711 ++++++++++++++++++++to 0.00901711
Heightened Def Con from 0.00903711 ++++++++++++++++++++to 0.00903711
Heightened Def Con from 0.00905711 ++++++++++++++++++++to 0.00905711
Heightened Def Con from 0.00907711 ++++++++++++++++++++to 0.00907711
Heightened Def Con from 0.00909711 ++++++++++++++++++++to 0.00909711
Heightened Def Con from 0.00911711 ++++++++++++++++++++to 0.00911711
Heightened Def Con from 0.00913711 ++++++++++++++++++++to 0.00913711
Heightened Def Con from 0.00915711 ++++++++++++++++++++to 0.00915711
Heightened Def Con from 0.00917711 ++++++++++++++++++++to 0.00917711
Heightened Def Con from 0.00919711 ++++++++++++++++++++to 0.00919711
Heightened Def Con from 0.00921711 ++++++++++++++++++++to 0.00921711
Heightened Def Con from 0.00923711 ++++++++++++++++++++to 0.00923711
Heightened Def Con from 0.00925711 ++++++++++++++++++++to 0.00925711
Heightened Def Con from 0.00927711 ++++++++++++++++++++to 0.00927711
Heightened Def Con from 0.00929711 ++++++++++++++++++++to 0.00929711
Heightened Def Con from 0.00931711 ++++++++++++++++++++to 0.00931711
Heightened Def Con from 0.00933711 ++++++++++++++++++++to 0.00933711
Heightened Def Con from 0.00935711 ++++++++++++++++++++to 0.00935711
Heightened Def Con from 0.00937711 ++++++++++++++++++++to 0.00937711
Heightened Def Con from 0.00939711 ++++++++++++++++++++to 0.00939711
Heightened Def Con from 0.00941711 ++++++++++++++++++++to 0.00941711
Heightened Def Con from 0.00943711 ++++++++++++++++++++to 0.00943711
Heightened Def Con from 0.00945711 ++++++++++++++++++++to 0.00945711
Heightened Def Con from 0.00947711 ++++++++++++++++++++to 0.00947711
Heightened Def Con from 0.00949711 ++++++++++++++++++++to 0.00949711
Heightened Def Con from 0.00951711 ++++++++++++++++++++to 0.00951711
Heightened Def Con from 0.00953711 ++++++++++++++++++++to 0.00953711
Heightened Def Con from 0.00955711 ++++++++++++++++++++to 0.00955711
Heightened Def Con from 0.00957711 ++++++++++++++++++++to 0.00957711
Heightened Def Con from 0.00959711 ++++++++++++++++++++to 0.00959711
Heightened Def Con from 0.00961711 ++++++++++++++++++++to 0.00961711
Heightened Def Con from 0.00963711 ++++++++++++++++++++to 0.00963711
Heightened Def Con from 0.00965711 ++++++++++++++++++++to 0.00965711
Heightened Def Con from 0.00967711 ++++++++++++++++++++to 0.00967711
Heightened Def Con from 0.00969711 ++++++++++++++++++++to 0.00969711
Heightened Def Con from 0.00971711 ++++++++++++++++++++to 0.00971711
Heightened Def Con from 0.00973711 ++++++++++++++++++++to 0.00973711
Heightened Def Con from 0.00975711 ++++++++++++++++++++to 0.00975711
Heightened Def Con from 0.00977711 ++++++++++++++++++++to 0.00977711
Heightened Def Con from 0.00979711 ++++++++++++++++++++to 0.00979711
Heightened Def Con from 0.00981711 ++++++++++++++++++++to 0.00981711
Heightened Def Con from 0.00983711 ++++++++++++++++++++to 0.00983711
Heightened Def Con from 0.00985711 ++++++++++++++++++++to 0.00985711
Heightened Def Con from 0.00987711 ++++++++++++++++++++to 0.00987711
Heightened Def Con from 0.00989711 ++++++++++++++++++++to 0.00989711
Heightened Def Con from 0.00991711 ++++++++++++++++++++to 0.00991711
Heightened Def Con from 0.00993711 ++++++++++++++++++++to 0.00993711
Heightened Def Con from 0.00995711 ++++++++++++++++++++to 0.00995711
Heightened Def Con from 0.00997711 ++++++++++++++++++++to 0.00997711
Heightened Def Con from 0.00999711 ++++++++++++++++++++to 0.00999711
Heightened Def Con from 0.0100171 ++++++++++++++++++++to 0.0100171
Heightened Def Con from 0.0100371 ++++++++++++++++++++to 0.0100371
Heightened Def Con from 0.0100571 ++++++++++++++++++++to 0.0100571
Heightened Def Con from 0.0100771 ++++++++++++++++++++to 0.0100771
Heightened Def Con from 0.0100971 ++++++++++++++++++++to 0.0100971
Heightened Def Con from 0.0101171 ++++++++++++++++++++to 0.0101171
Heightened Def Con from 0.0101371 ++++++++++++++++++++to 0.0101371
Heightened Def Con from 0.0101571 ++++++++++++++++++++to 0.0101571
Heightened Def Con from 0.0101771 ++++++++++++++++++++to 0.0101771
Heightened Def Con from 0.0101971 ++++++++++++++++++++to 0.0101971
Heightened Def Con from 0.0102171 ++++++++++++++++++++to 0.0102171
Heightened Def Con from 0.0102371 ++++++++++++++++++++to 0.0102371
Heightened Def Con from 0.0102571 ++++++++++++++++++++to 0.0102571
Heightened Def Con from 0.0102771 ++++++++++++++++++++to 0.0102771
Heightened Def Con from 0.0102971 ++++++++++++++++++++to 0.0102971
Heightened Def Con from 0.0103171 ++++++++++++++++++++to 0.0103171
Heightened Def Con from 0.0103371 ++++++++++++++++++++to 0.0103371
Heightened Def Con from 0.0103571 ++++++++++++++++++++to 0.0103571
Heightened Def Con from 0.0103771 ++++++++++++++++++++to 0.0103771
Heightened Def Con from 0.0103971 ++++++++++++++++++++to 0.0103971
Heightened Def Con from 0.0104171 ++++++++++++++++++++to 0.0104171
Heightened Def Con from 0.0104371 ++++++++++++++++++++to 0.0104371
Heightened Def Con from 0.0104571 ++++++++++++++++++++to 0.0104571
Heightened Def Con from 0.0104771 ++++++++++++++++++++to 0.0104771
Heightened Def Con from 0.0104971 ++++++++++++++++++++to 0.0104971
Heightened Def Con from 0.0105171 ++++++++++++++++++++to 0.0105171
Heightened Def Con from 0.0105371 ++++++++++++++++++++to 0.0105371
Heightened Def Con from 0.0105571 ++++++++++++++++++++to 0.0105571
Heightened Def Con from 0.0105771 ++++++++++++++++++++to 0.0105771
Heightened Def Con from 0.0105971 ++++++++++++++++++++to 0.0105971
Heightened Def Con from 0.0106171 ++++++++++++++++++++to 0.0106171
Heightened Def Con from 0.0106371 ++++++++++++++++++++to 0.0106371
Heightened Def Con from 0.0106571 ++++++++++++++++++++to 0.0106571
Heightened Def Con from 0.0106771 ++++++++++++++++++++to 0.0106771
Heightened Def Con from 0.0106971 ++++++++++++++++++++to 0.0106971
Heightened Def Con from 0.0107171 ++++++++++++++++++++to 0.0107171
Heightened Def Con from 0.0107371 ++++++++++++++++++++to 0.0107371
Heightened Def Con from 0.0107571 ++++++++++++++++++++to 0.0107571
Heightened Def Con from 0.0107771 ++++++++++++++++++++to 0.0107771
Heightened Def Con from 0.0107971 ++++++++++++++++++++to 0.0107971
Heightened Def Con from 0.0108171 ++++++++++++++++++++to 0.0108171
Heightened Def Con from 0.0108371 ++++++++++++++++++++to 0.0108371
Heightened Def Con from 0.0108571 ++++++++++++++++++++to 0.0108571
Heightened Def Con from 0.0108771 ++++++++++++++++++++to 0.0108771
Heightened Def Con from 0.0108971 ++++++++++++++++++++to 0.0108971
Heightened Def Con from 0.0109171 ++++++++++++++++++++to 0.0109171
Heightened Def Con from 0.0109371 ++++++++++++++++++++to 0.0109371
Heightened Def Con from 0.0109571 ++++++++++++++++++++to 0.0109571
Heightened Def Con from 0.0109771 ++++++++++++++++++++to 0.0109771
Heightened Def Con from 0.0109971 ++++++++++++++++++++to 0.0109971
Heightened Def Con from 0.0110171 ++++++++++++++++++++to 0.0110171
Heightened Def Con from 0.0110371 ++++++++++++++++++++to 0.0110371
Heightened Def Con from 0.0110571 ++++++++++++++++++++to 0.0110571
Heightened Def Con from 0.0110771 ++++++++++++++++++++to 0.0110771
Heightened Def Con from 0.0110971 ++++++++++++++++++++to 0.0110971
Heightened Def Con from 0.0111171 ++++++++++++++++++++to 0.0111171
Heightened Def Con from 0.0111371 ++++++++++++++++++++to 0.0111371
Heightened Def Con from 0.0111571 ++++++++++++++++++++to 0.0111571
Heightened Def Con from 0.0111771 ++++++++++++++++++++to 0.0111771
Heightened Def Con from 0.0111971 ++++++++++++++++++++to 0.0111971
Heightened Def Con from 0.0112171 ++++++++++++++++++++to 0.0112171
Heightened Def Con from 0.0112371 ++++++++++++++++++++to 0.0112371
Heightened Def Con from 0.0112571 ++++++++++++++++++++to 0.0112571
Heightened Def Con from 0.0112771 ++++++++++++++++++++to 0.0112771
Heightened Def Con from 0.0112971 ++++++++++++++++++++to 0.0112971
Heightened Def Con from 0.0113171 ++++++++++++++++++++to 0.0113171
Heightened Def Con from 0.0113371 ++++++++++++++++++++to 0.0113371
Heightened Def Con from 0.0113571 ++++++++++++++++++++to 0.0113571
Heightened Def Con from 0.0113771 ++++++++++++++++++++to 0.0113771
Heightened Def Con from 0.0113971 ++++++++++++++++++++to 0.0113971
Heightened Def Con from 0.0114171 ++++++++++++++++++++to 0.0114171
Heightened Def Con from 0.0114371 ++++++++++++++++++++to 0.0114371
Heightened Def Con from 0.0114571 ++++++++++++++++++++to 0.0114571
Heightened Def Con from 0.0114771 ++++++++++++++++++++to 0.0114771
Heightened Def Con from 0.0114971 ++++++++++++++++++++to 0.0114971
Heightened Def Con from 0.0115171 ++++++++++++++++++++to 0.0115171
Heightened Def Con from 0.0115371 ++++++++++++++++++++to 0.0115371
Heightened Def Con from 0.0115571 ++++++++++++++++++++to 0.0115571
Heightened Def Con from 0.0115771 ++++++++++++++++++++to 0.0115771
Heightened Def Con from 0.0115971 ++++++++++++++++++++to 0.0115971
Heightened Def Con from 0.0116171 ++++++++++++++++++++to 0.0116171
Heightened Def Con from 0.0116371 ++++++++++++++++++++to 0.0116371
Heightened Def Con from 0.0116571 ++++++++++++++++++++to 0.0116571
Heightened Def Con from 0.0116771 ++++++++++++++++++++to 0.0116771
Heightened Def Con from 0.0116971 ++++++++++++++++++++to 0.0116971
Heightened Def Con from 0.0117171 ++++++++++++++++++++to 0.0117171
Heightened Def Con from 0.0117371 ++++++++++++++++++++to 0.0117371
Heightened Def Con from 0.0117571 ++++++++++++++++++++to 0.0117571
Heightened Def Con from 0.0117771 ++++++++++++++++++++to 0.0117771
Heightened Def Con from 0.0117971 ++++++++++++++++++++to 0.0117971
Heightened Def Con from 0.0118171 ++++++++++++++++++++to 0.0118171
Heightened Def Con from 0.0118371 ++++++++++++++++++++to 0.0118371
Heightened Def Con from 0.0118571 ++++++++++++++++++++to 0.0118571
Heightened Def Con from 0.0118771 ++++++++++++++++++++to 0.0118771
Heightened Def Con from 0.0118971 ++++++++++++++++++++to 0.0118971
Heightened Def Con from 0.0119171 ++++++++++++++++++++to 0.0119171
Heightened Def Con from 0.0119371 ++++++++++++++++++++to 0.0119371
Heightened Def Con from 0.0119571 ++++++++++++++++++++to 0.0119571
Heightened Def Con from 0.0119771 ++++++++++++++++++++to 0.0119771
Heightened Def Con from 0.0119971 ++++++++++++++++++++to 0.0119971
Heightened Def Con from 0.0120171 ++++++++++++++++++++to 0.0120171
Heightened Def Con from 0.0120371 ++++++++++++++++++++to 0.0120371
Heightened Def Con from 0.0120571 ++++++++++++++++++++to 0.0120571
Heightened Def Con from 0.0120771 ++++++++++++++++++++to 0.0120771
Heightened Def Con from 0.0120971 ++++++++++++++++++++to 0.0120971
Heightened Def Con from 0.0121171 ++++++++++++++++++++to 0.0121171
Heightened Def Con from 0.0121371 ++++++++++++++++++++to 0.0121371
Heightened Def Con from 0.0121571 ++++++++++++++++++++to 0.0121571
Heightened Def Con from 0.0121771 ++++++++++++++++++++to 0.0121771
Heightened Def Con from 0.0121971 ++++++++++++++++++++to 0.0121971
Heightened Def Con from 0.0122171 ++++++++++++++++++++to 0.0122171
Heightened Def Con from 0.0122371 ++++++++++++++++++++to 0.0122371
Heightened Def Con from 0.0122571 ++++++++++++++++++++to 0.0122571
Heightened Def Con from 0.0122771 ++++++++++++++++++++to 0.0122771
Heightened Def Con from 0.0122971 ++++++++++++++++++++to 0.0122971
Heightened Def Con from 0.0123171 ++++++++++++++++++++to 0.0123171
Heightened Def Con from 0.0123371 ++++++++++++++++++++to 0.0123371
Heightened Def Con from 0.0123571 ++++++++++++++++++++to 0.0123571
Heightened Def Con from 0.0123771 ++++++++++++++++++++to 0.0123771
Heightened Def Con from 0.0123971 ++++++++++++++++++++to 0.0123971
Heightened Def Con from 0.0124171 ++++++++++++++++++++to 0.0124171
Heightened Def Con from 0.0124371 ++++++++++++++++++++to 0.0124371
Heightened Def Con from 0.0124571 ++++++++++++++++++++to 0.0124571
Heightened Def Con from 0.0124771 ++++++++++++++++++++to 0.0124771
Heightened Def Con from 0.0124971 ++++++++++++++++++++to 0.0124971
Heightened Def Con from 0.0125171 ++++++++++++++++++++to 0.0125171
Heightened Def Con from 0.0125371 ++++++++++++++++++++to 0.0125371
Heightened Def Con from 0.0125571 ++++++++++++++++++++to 0.0125571
Heightened Def Con from 0.0125771 ++++++++++++++++++++to 0.0125771
Heightened Def Con from 0.0125971 ++++++++++++++++++++to 0.0125971
Heightened Def Con from 0.0126171 ++++++++++++++++++++to 0.0126171
Heightened Def Con from 0.0126371 ++++++++++++++++++++to 0.0126371
Heightened Def Con from 0.0126571 ++++++++++++++++++++to 0.0126571
Heightened Def Con from 0.0126771 ++++++++++++++++++++to 0.0126771
Heightened Def Con from 0.0126971 ++++++++++++++++++++to 0.0126971
Heightened Def Con from 0.0127171 ++++++++++++++++++++to 0.0127171
Heightened Def Con from 0.0127371 ++++++++++++++++++++to 0.0127371
Heightened Def Con from 0.0127571 ++++++++++++++++++++to 0.0127571
Heightened Def Con from 0.0127771 ++++++++++++++++++++to 0.0127771
Heightened Def Con from 0.0127971 ++++++++++++++++++++to 0.0127971
Heightened Def Con from 0.0128171 ++++++++++++++++++++to 0.0128171
Heightened Def Con from 0.0128371 ++++++++++++++++++++to 0.0128371
Heightened Def Con from 0.0128571 ++++++++++++++++++++to 0.0128571
Heightened Def Con from 0.0128771 ++++++++++++++++++++to 0.0128771
Heightened Def Con from 0.0128971 ++++++++++++++++++++to 0.0128971
Heightened Def Con from 0.0129171 ++++++++++++++++++++to 0.0129171
Heightened Def Con from 0.0129371 ++++++++++++++++++++to 0.0129371
Heightened Def Con from 0.0129571 ++++++++++++++++++++to 0.0129571
Heightened Def Con from 0.0129771 ++++++++++++++++++++to 0.0129771
Heightened Def Con from 0.0129971 ++++++++++++++++++++to 0.0129971
Heightened Def Con from 0.0130171 ++++++++++++++++++++to 0.0130171
Heightened Def Con from 0.0130371 ++++++++++++++++++++to 0.0130371
Heightened Def Con from 0.0130571 ++++++++++++++++++++to 0.0130571
Heightened Def Con from 0.0130771 ++++++++++++++++++++to 0.0130771
Heightened Def Con from 0.0130971 ++++++++++++++++++++to 0.0130971
Heightened Def Con from 0.0131171 ++++++++++++++++++++to 0.0131171
Heightened Def Con from 0.0131371 ++++++++++++++++++++to 0.0131371
Heightened Def Con from 0.0131571 ++++++++++++++++++++to 0.0131571
Heightened Def Con from 0.0131771 ++++++++++++++++++++to 0.0131771
Heightened Def Con from 0.0131971 ++++++++++++++++++++to 0.0131971
Heightened Def Con from 0.0132171 ++++++++++++++++++++to 0.0132171
Heightened Def Con from 0.0132371 ++++++++++++++++++++to 0.0132371
Heightened Def Con from 0.0132571 ++++++++++++++++++++to 0.0132571
Heightened Def Con from 0.0132771 ++++++++++++++++++++to 0.0132771
Heightened Def Con from 0.0132971 ++++++++++++++++++++to 0.0132971
Heightened Def Con from 0.0133171 ++++++++++++++++++++to 0.0133171
Heightened Def Con from 0.0133371 ++++++++++++++++++++to 0.0133371
Heightened Def Con from 0.0133571 ++++++++++++++++++++to 0.0133571
Heightened Def Con from 0.0133771 ++++++++++++++++++++to 0.0133771
Heightened Def Con from 0.0133971 ++++++++++++++++++++to 0.0133971
Heightened Def Con from 0.0134171 ++++++++++++++++++++to 0.0134171
Heightened Def Con from 0.0134371 ++++++++++++++++++++to 0.0134371
Heightened Def Con from 0.0134571 ++++++++++++++++++++to 0.0134571
Heightened Def Con from 0.0134771 ++++++++++++++++++++to 0.0134771
Heightened Def Con from 0.0134971 ++++++++++++++++++++to 0.0134971
Heightened Def Con from 0.0135171 ++++++++++++++++++++to 0.0135171
Heightened Def Con from 0.0135371 ++++++++++++++++++++to 0.0135371
Heightened Def Con from 0.0135571 ++++++++++++++++++++to 0.0135571
Heightened Def Con from 0.0135771 ++++++++++++++++++++to 0.0135771
Heightened Def Con from 0.0135971 ++++++++++++++++++++to 0.0135971
Heightened Def Con from 0.0136171 ++++++++++++++++++++to 0.0136171
Heightened Def Con from 0.0136371 ++++++++++++++++++++to 0.0136371
Heightened Def Con from 0.0136571 ++++++++++++++++++++to 0.0136571
Heightened Def Con from 0.0136771 ++++++++++++++++++++to 0.0136771
Heightened Def Con from 0.0136971 ++++++++++++++++++++to 0.0136971
Heightened Def Con from 0.0137171 ++++++++++++++++++++to 0.0137171
Heightened Def Con from 0.0137371 ++++++++++++++++++++to 0.0137371
Heightened Def Con from 0.0137571 ++++++++++++++++++++to 0.0137571
Heightened Def Con from 0.0137771 ++++++++++++++++++++to 0.0137771
Heightened Def Con from 0.0137971 ++++++++++++++++++++to 0.0137971
Heightened Def Con from 0.0138171 ++++++++++++++++++++to 0.0138171
Heightened Def Con from 0.0138371 ++++++++++++++++++++to 0.0138371
Heightened Def Con from 0.0138571 ++++++++++++++++++++to 0.0138571
Heightened Def Con from 0.0138771 ++++++++++++++++++++to 0.0138771
Heightened Def Con from 0.0138971 ++++++++++++++++++++to 0.0138971
Heightened Def Con from 0.0139171 ++++++++++++++++++++to 0.0139171
Heightened Def Con from 0.0139371 ++++++++++++++++++++to 0.0139371
Heightened Def Con from 0.0139571 ++++++++++++++++++++to 0.0139571
Heightened Def Con from 0.0139771 ++++++++++++++++++++to 0.0139771
Heightened Def Con from 0.0139971 ++++++++++++++++++++to 0.0139971
Heightened Def Con from 0.0140171 ++++++++++++++++++++to 0.0140171
Heightened Def Con from 0.0140371 ++++++++++++++++++++to 0.0140371
Heightened Def Con from 0.0140571 ++++++++++++++++++++to 0.0140571
Heightened Def Con from 0.0140771 ++++++++++++++++++++to 0.0140771
Heightened Def Con from 0.0140971 ++++++++++++++++++++to 0.0140971
Heightened Def Con from 0.0141171 ++++++++++++++++++++to 0.0141171
Heightened Def Con from 0.0141371 ++++++++++++++++++++to 0.0141371
Heightened Def Con from 0.0141571 ++++++++++++++++++++to 0.0141571
Heightened Def Con from 0.0141771 ++++++++++++++++++++to 0.0141771
Heightened Def Con from 0.0141971 ++++++++++++++++++++to 0.0141971
Heightened Def Con from 0.0142171 ++++++++++++++++++++to 0.0142171
Heightened Def Con from 0.0142371 ++++++++++++++++++++to 0.0142371
Heightened Def Con from 0.0142571 ++++++++++++++++++++to 0.0142571
Heightened Def Con from 0.0142771 ++++++++++++++++++++to 0.0142771
Heightened Def Con from 0.0142971 ++++++++++++++++++++to 0.0142971
Heightened Def Con from 0.0143171 ++++++++++++++++++++to 0.0143171
Heightened Def Con from 0.0143371 ++++++++++++++++++++to 0.0143371
Heightened Def Con from 0.0143571 ++++++++++++++++++++to 0.0143571
Heightened Def Con from 0.0143771 ++++++++++++++++++++to 0.0143771
Heightened Def Con from 0.0143971 ++++++++++++++++++++to 0.0143971
Heightened Def Con from 0.0144171 ++++++++++++++++++++to 0.0144171
Heightened Def Con from 0.0144371 ++++++++++++++++++++to 0.0144371
Heightened Def Con from 0.0144571 ++++++++++++++++++++to 0.0144571
Heightened Def Con from 0.0144771 ++++++++++++++++++++to 0.0144771
Heightened Def Con from 0.0144971 ++++++++++++++++++++to 0.0144971
Heightened Def Con from 0.0145171 ++++++++++++++++++++to 0.0145171
Heightened Def Con from 0.0145371 ++++++++++++++++++++to 0.0145371
Heightened Def Con from 0.0145571 ++++++++++++++++++++to 0.0145571
Heightened Def Con from 0.0145771 ++++++++++++++++++++to 0.0145771
Heightened Def Con from 0.0145971 ++++++++++++++++++++to 0.0145971
Heightened Def Con from 0.0146171 ++++++++++++++++++++to 0.0146171
Heightened Def Con from 0.0146371 ++++++++++++++++++++to 0.0146371
Heightened Def Con from 0.0146571 ++++++++++++++++++++to 0.0146571
Heightened Def Con from 0.0146771 ++++++++++++++++++++to 0.0146771
Heightened Def Con from 0.0146971 ++++++++++++++++++++to 0.0146971
Heightened Def Con from 0.0147171 ++++++++++++++++++++to 0.0147171
Heightened Def Con from 0.0147371 ++++++++++++++++++++to 0.0147371
Heightened Def Con from 0.0147571 ++++++++++++++++++++to 0.0147571
Heightened Def Con from 0.0147771 ++++++++++++++++++++to 0.0147771
Heightened Def Con from 0.0147971 ++++++++++++++++++++to 0.0147971
Heightened Def Con from 0.0148171 ++++++++++++++++++++to 0.0148171
Heightened Def Con from 0.0148371 ++++++++++++++++++++to 0.0148371
Heightened Def Con from 0.0148571 ++++++++++++++++++++to 0.0148571
Heightened Def Con from 0.0148771 ++++++++++++++++++++to 0.0148771
Heightened Def Con from 0.0148971 ++++++++++++++++++++to 0.0148971
Heightened Def Con from 0.0149171 ++++++++++++++++++++to 0.0149171
Heightened Def Con from 0.0149371 ++++++++++++++++++++to 0.0149371
Heightened Def Con from 0.0149571 ++++++++++++++++++++to 0.0149571
Heightened Def Con from 0.0149771 ++++++++++++++++++++to 0.0149771
Heightened Def Con from 0.0149971 ++++++++++++++++++++to 0.0149971
Heightened Def Con from 0.0150171 ++++++++++++++++++++to 0.0150171
Heightened Def Con from 0.0150371 ++++++++++++++++++++to 0.0150371
Heightened Def Con from 0.0150571 ++++++++++++++++++++to 0.0150571
Heightened Def Con from 0.0150771 ++++++++++++++++++++to 0.0150771
Heightened Def Con from 0.0150971 ++++++++++++++++++++to 0.0150971
Heightened Def Con from 0.0151171 ++++++++++++++++++++to 0.0151171
Heightened Def Con from 0.0151371 ++++++++++++++++++++to 0.0151371
Heightened Def Con from 0.0151571 ++++++++++++++++++++to 0.0151571
Heightened Def Con from 0.0151771 ++++++++++++++++++++to 0.0151771
Heightened Def Con from 0.0151971 ++++++++++++++++++++to 0.0151971
Heightened Def Con from 0.0152171 ++++++++++++++++++++to 0.0152171
Heightened Def Con from 0.0152371 ++++++++++++++++++++to 0.0152371
Heightened Def Con from 0.0152571 ++++++++++++++++++++to 0.0152571
Heightened Def Con from 0.0152771 ++++++++++++++++++++to 0.0152771
Heightened Def Con from 0.0152971 ++++++++++++++++++++to 0.0152971
Heightened Def Con from 0.0153171 ++++++++++++++++++++to 0.0153171
Heightened Def Con from 0.0153371 ++++++++++++++++++++to 0.0153371
Heightened Def Con from 0.0153571 ++++++++++++++++++++to 0.0153571
Heightened Def Con from 0.0153771 ++++++++++++++++++++to 0.0153771
Heightened Def Con from 0.0153971 ++++++++++++++++++++to 0.0153971
Heightened Def Con from 0.0154171 ++++++++++++++++++++to 0.0154171
Heightened Def Con from 0.0154371 ++++++++++++++++++++to 0.0154371
Heightened Def Con from 0.0154571 ++++++++++++++++++++to 0.0154571
Heightened Def Con from 0.0154771 ++++++++++++++++++++to 0.0154771
Heightened Def Con from 0.0154971 ++++++++++++++++++++to 0.0154971
Heightened Def Con from 0.0155171 ++++++++++++++++++++to 0.0155171
Heightened Def Con from 0.0155371 ++++++++++++++++++++to 0.0155371
Heightened Def Con from 0.0155571 ++++++++++++++++++++to 0.0155571
Heightened Def Con from 0.0155771 ++++++++++++++++++++to 0.0155771
Heightened Def Con from 0.0155971 ++++++++++++++++++++to 0.0155971
Heightened Def Con from 0.0156171 ++++++++++++++++++++to 0.0156171
Heightened Def Con from 0.0156371 ++++++++++++++++++++to 0.0156371
Heightened Def Con from 0.0156571 ++++++++++++++++++++to 0.0156571
Heightened Def Con from 0.0156771 ++++++++++++++++++++to 0.0156771
Heightened Def Con from 0.0156971 ++++++++++++++++++++to 0.0156971
Heightened Def Con from 0.0157171 ++++++++++++++++++++to 0.0157171
Heightened Def Con from 0.0157371 ++++++++++++++++++++to 0.0157371
Heightened Def Con from 0.0157571 ++++++++++++++++++++to 0.0157571
Heightened Def Con from 0.0157771 ++++++++++++++++++++to 0.0157771
Heightened Def Con from 0.0157971 ++++++++++++++++++++to 0.0157971
Heightened Def Con from 0.0158171 ++++++++++++++++++++to 0.0158171
Heightened Def Con from 0.0158371 ++++++++++++++++++++to 0.0158371
Heightened Def Con from 0.0158571 ++++++++++++++++++++to 0.0158571
Heightened Def Con from 0.0158771 ++++++++++++++++++++to 0.0158771
Heightened Def Con from 0.0158971 ++++++++++++++++++++to 0.0158971
Heightened Def Con from 0.0159171 ++++++++++++++++++++to 0.0159171
Heightened Def Con from 0.0159371 ++++++++++++++++++++to 0.0159371
Heightened Def Con from 0.0159571 ++++++++++++++++++++to 0.0159571
Heightened Def Con from 0.0159771 ++++++++++++++++++++to 0.0159771
Heightened Def Con from 0.0159971 ++++++++++++++++++++to 0.0159971
Heightened Def Con from 0.0160171 ++++++++++++++++++++to 0.0160171
Heightened Def Con from 0.0160371 ++++++++++++++++++++to 0.0160371
Heightened Def Con from 0.0160571 ++++++++++++++++++++to 0.0160571
Heightened Def Con from 0.0160771 ++++++++++++++++++++to 0.0160771
Heightened Def Con from 0.0160971 ++++++++++++++++++++to 0.0160971
Heightened Def Con from 0.0161171 ++++++++++++++++++++to 0.0161171
Heightened Def Con from 0.0161371 ++++++++++++++++++++to 0.0161371
Heightened Def Con from 0.0161571 ++++++++++++++++++++to 0.0161571
Heightened Def Con from 0.0161771 ++++++++++++++++++++to 0.0161771
Heightened Def Con from 0.0161971 ++++++++++++++++++++to 0.0161971
Heightened Def Con from 0.0162171 ++++++++++++++++++++to 0.0162171
Heightened Def Con from 0.0162371 ++++++++++++++++++++to 0.0162371
Heightened Def Con from 0.0162571 ++++++++++++++++++++to 0.0162571
Heightened Def Con from 0.0162771 ++++++++++++++++++++to 0.0162771
Heightened Def Con from 0.0162971 ++++++++++++++++++++to 0.0162971
Heightened Def Con from 0.0163171 ++++++++++++++++++++to 0.0163171
Heightened Def Con from 0.0163371 ++++++++++++++++++++to 0.0163371
Heightened Def Con from 0.0163571 ++++++++++++++++++++to 0.0163571
Heightened Def Con from 0.0163771 ++++++++++++++++++++to 0.0163771
Heightened Def Con from 0.0163971 ++++++++++++++++++++to 0.0163971
Heightened Def Con from 0.0164171 ++++++++++++++++++++to 0.0164171
Heightened Def Con from 0.0164371 ++++++++++++++++++++to 0.0164371
Heightened Def Con from 0.0164571 ++++++++++++++++++++to 0.0164571
Heightened Def Con from 0.0164771 ++++++++++++++++++++to 0.0164771
Heightened Def Con from 0.0164971 ++++++++++++++++++++to 0.0164971
Heightened Def Con from 0.0165171 ++++++++++++++++++++to 0.0165171
Heightened Def Con from 0.0165371 ++++++++++++++++++++to 0.0165371
Heightened Def Con from 0.0165571 ++++++++++++++++++++to 0.0165571
Heightened Def Con from 0.0165771 ++++++++++++++++++++to 0.0165771
Heightened Def Con from 0.0165971 ++++++++++++++++++++to 0.0165971
Heightened Def Con from 0.0166171 ++++++++++++++++++++to 0.0166171
Heightened Def Con from 0.0166371 ++++++++++++++++++++to 0.0166371
Heightened Def Con from 0.0166571 ++++++++++++++++++++to 0.0166571
Heightened Def Con from 0.0166771 ++++++++++++++++++++to 0.0166771
Heightened Def Con from 0.0166971 ++++++++++++++++++++to 0.0166971
Heightened Def Con from 0.0167171 ++++++++++++++++++++to 0.0167171
Heightened Def Con from 0.0167371 ++++++++++++++++++++to 0.0167371
Heightened Def Con from 0.0167571 ++++++++++++++++++++to 0.0167571
Heightened Def Con from 0.0167771 ++++++++++++++++++++to 0.0167771
Heightened Def Con from 0.0167971 ++++++++++++++++++++to 0.0167971
Heightened Def Con from 0.0168171 ++++++++++++++++++++to 0.0168171
Heightened Def Con from 0.0168371 ++++++++++++++++++++to 0.0168371
Heightened Def Con from 0.0168571 ++++++++++++++++++++to 0.0168571
Heightened Def Con from 0.0168771 ++++++++++++++++++++to 0.0168771
Heightened Def Con from 0.0168971 ++++++++++++++++++++to 0.0168971
Heightened Def Con from 0.0169171 ++++++++++++++++++++to 0.0169171
Heightened Def Con from 0.0169371 ++++++++++++++++++++to 0.0169371
Heightened Def Con from 0.0169571 ++++++++++++++++++++to 0.0169571
Heightened Def Con from 0.0169771 ++++++++++++++++++++to 0.0169771
Heightened Def Con from 0.0169971 ++++++++++++++++++++to 0.0169971
Heightened Def Con from 0.0170171 ++++++++++++++++++++to 0.0170171
Heightened Def Con from 0.0170371 ++++++++++++++++++++to 0.0170371
Heightened Def Con from 0.0170571 ++++++++++++++++++++to 0.0170571
Heightened Def Con from 0.0170771 ++++++++++++++++++++to 0.0170771
Heightened Def Con from 0.0170971 ++++++++++++++++++++to 0.0170971
Heightened Def Con from 0.0171171 ++++++++++++++++++++to 0.0171171
Heightened Def Con from 0.0171371 ++++++++++++++++++++to 0.0171371
Heightened Def Con from 0.0171571 ++++++++++++++++++++to 0.0171571
Heightened Def Con from 0.0171771 ++++++++++++++++++++to 0.0171771
Heightened Def Con from 0.0171971 ++++++++++++++++++++to 0.0171971
Heightened Def Con from 0.0172171 ++++++++++++++++++++to 0.0172171
Heightened Def Con from 0.0172371 ++++++++++++++++++++to 0.0172371
Heightened Def Con from 0.0172571 ++++++++++++++++++++to 0.0172571
Heightened Def Con from 0.0172771 ++++++++++++++++++++to 0.0172771
Heightened Def Con from 0.0172971 ++++++++++++++++++++to 0.0172971
Heightened Def Con from 0.0173171 ++++++++++++++++++++to 0.0173171
Heightened Def Con from 0.0173371 ++++++++++++++++++++to 0.0173371
Heightened Def Con from 0.0173571 ++++++++++++++++++++to 0.0173571
Heightened Def Con from 0.0173771 ++++++++++++++++++++to 0.0173771
Heightened Def Con from 0.0173971 ++++++++++++++++++++to 0.0173971
Heightened Def Con from 0.0174171 ++++++++++++++++++++to 0.0174171
Heightened Def Con from 0.0174371 ++++++++++++++++++++to 0.0174371
Heightened Def Con from 0.0174571 ++++++++++++++++++++to 0.0174571
Heightened Def Con from 0.0174771 ++++++++++++++++++++to 0.0174771
Heightened Def Con from 0.0174971 ++++++++++++++++++++to 0.0174971
Heightened Def Con from 0.0175171 ++++++++++++++++++++to 0.0175171
Heightened Def Con from 0.0175371 ++++++++++++++++++++to 0.0175371
Heightened Def Con from 0.0175571 ++++++++++++++++++++to 0.0175571
Heightened Def Con from 0.0175771 ++++++++++++++++++++to 0.0175771
Heightened Def Con from 0.0175971 ++++++++++++++++++++to 0.0175971
Heightened Def Con from 0.0176171 ++++++++++++++++++++to 0.0176171
Heightened Def Con from 0.0176371 ++++++++++++++++++++to 0.0176371
Heightened Def Con from 0.0176571 ++++++++++++++++++++to 0.0176571
Heightened Def Con from 0.0176771 ++++++++++++++++++++to 0.0176771
Heightened Def Con from 0.0176971 ++++++++++++++++++++to 0.0176971
Heightened Def Con from 0.0177171 ++++++++++++++++++++to 0.0177171
Heightened Def Con from 0.0177371 ++++++++++++++++++++to 0.0177371
Heightened Def Con from 0.0177571 ++++++++++++++++++++to 0.0177571
Heightened Def Con from 0.0177771 ++++++++++++++++++++to 0.0177771
Heightened Def Con from 0.0177971 ++++++++++++++++++++to 0.0177971
Heightened Def Con from 0.0178171 ++++++++++++++++++++to 0.0178171
Heightened Def Con from 0.0178371 ++++++++++++++++++++to 0.0178371
Heightened Def Con from 0.0178571 ++++++++++++++++++++to 0.0178571
Heightened Def Con from 0.0178771 ++++++++++++++++++++to 0.0178771
Heightened Def Con from 0.0178971 ++++++++++++++++++++to 0.0178971
Heightened Def Con from 0.0179171 ++++++++++++++++++++to 0.0179171
Heightened Def Con from 0.0179371 ++++++++++++++++++++to 0.0179371
Heightened Def Con from 0.0179571 ++++++++++++++++++++to 0.0179571
Heightened Def Con from 0.0179771 ++++++++++++++++++++to 0.0179771
Heightened Def Con from 0.0179971 ++++++++++++++++++++to 0.0179971
Heightened Def Con from 0.0180171 ++++++++++++++++++++to 0.0180171
Heightened Def Con from 0.0180371 ++++++++++++++++++++to 0.0180371
Heightened Def Con from 0.0180571 ++++++++++++++++++++to 0.0180571
Heightened Def Con from 0.0180771 ++++++++++++++++++++to 0.0180771
Heightened Def Con from 0.0180971 ++++++++++++++++++++to 0.0180971
Heightened Def Con from 0.0181171 ++++++++++++++++++++to 0.0181171
Heightened Def Con from 0.0181371 ++++++++++++++++++++to 0.0181371
Heightened Def Con from 0.0181571 ++++++++++++++++++++to 0.0181571
Heightened Def Con from 0.0181771 ++++++++++++++++++++to 0.0181771
Heightened Def Con from 0.0181971 ++++++++++++++++++++to 0.0181971
Heightened Def Con from 0.0182171 ++++++++++++++++++++to 0.0182171
Heightened Def Con from 0.0182371 ++++++++++++++++++++to 0.0182371
Heightened Def Con from 0.0182571 ++++++++++++++++++++to 0.0182571
Heightened Def Con from 0.0182771 ++++++++++++++++++++to 0.0182771
Heightened Def Con from 0.0182971 ++++++++++++++++++++to 0.0182971
Heightened Def Con from 0.0183171 ++++++++++++++++++++to 0.0183171
Heightened Def Con from 0.0183371 ++++++++++++++++++++to 0.0183371
Heightened Def Con from 0.0183571 ++++++++++++++++++++to 0.0183571
Heightened Def Con from 0.0183771 ++++++++++++++++++++to 0.0183771
Heightened Def Con from 0.0183971 ++++++++++++++++++++to 0.0183971
Heightened Def Con from 0.0184171 ++++++++++++++++++++to 0.0184171
Heightened Def Con from 0.0184371 ++++++++++++++++++++to 0.0184371
Heightened Def Con from 0.0184571 ++++++++++++++++++++to 0.0184571
Heightened Def Con from 0.0184771 ++++++++++++++++++++to 0.0184771
Heightened Def Con from 0.0184971 ++++++++++++++++++++to 0.0184971
Heightened Def Con from 0.0185171 ++++++++++++++++++++to 0.0185171
Heightened Def Con from 0.0185371 ++++++++++++++++++++to 0.0185371
Heightened Def Con from 0.0185571 ++++++++++++++++++++to 0.0185571
Heightened Def Con from 0.0185771 ++++++++++++++++++++to 0.0185771
Heightened Def Con from 0.0185971 ++++++++++++++++++++to 0.0185971
Heightened Def Con from 0.0186171 ++++++++++++++++++++to 0.0186171
Heightened Def Con from 0.0186371 ++++++++++++++++++++to 0.0186371
Heightened Def Con from 0.0186571 ++++++++++++++++++++to 0.0186571
Heightened Def Con from 0.0186771 ++++++++++++++++++++to 0.0186771
Heightened Def Con from 0.0186971 ++++++++++++++++++++to 0.0186971
Heightened Def Con from 0.0187171 ++++++++++++++++++++to 0.0187171
Heightened Def Con from 0.0187371 ++++++++++++++++++++to 0.0187371
Heightened Def Con from 0.0187571 ++++++++++++++++++++to 0.0187571
Heightened Def Con from 0.0187771 ++++++++++++++++++++to 0.0187771
Heightened Def Con from 0.0187971 ++++++++++++++++++++to 0.0187971
Heightened Def Con from 0.0188171 ++++++++++++++++++++to 0.0188171
Heightened Def Con from 0.0188371 ++++++++++++++++++++to 0.0188371
Heightened Def Con from 0.0188571 ++++++++++++++++++++to 0.0188571
Heightened Def Con from 0.0188771 ++++++++++++++++++++to 0.0188771
Heightened Def Con from 0.0188971 ++++++++++++++++++++to 0.0188971
Heightened Def Con from 0.0189171 ++++++++++++++++++++to 0.0189171
Heightened Def Con from 0.0189371 ++++++++++++++++++++to 0.0189371
Heightened Def Con from 0.0189571 ++++++++++++++++++++to 0.0189571
Heightened Def Con from 0.0189771 ++++++++++++++++++++to 0.0189771
Heightened Def Con from 0.0189971 ++++++++++++++++++++to 0.0189971
Heightened Def Con from 0.0190171 ++++++++++++++++++++to 0.0190171
Heightened Def Con from 0.0190371 ++++++++++++++++++++to 0.0190371
Heightened Def Con from 0.0190571 ++++++++++++++++++++to 0.0190571
Heightened Def Con from 0.0190771 ++++++++++++++++++++to 0.0190771
Heightened Def Con from 0.0190971 ++++++++++++++++++++to 0.0190971
Heightened Def Con from 0.0191171 ++++++++++++++++++++to 0.0191171
Heightened Def Con from 0.0191371 ++++++++++++++++++++to 0.0191371
Heightened Def Con from 0.0191571 ++++++++++++++++++++to 0.0191571
Heightened Def Con from 0.0191771 ++++++++++++++++++++to 0.0191771
Heightened Def Con from 0.0191971 ++++++++++++++++++++to 0.0191971
Heightened Def Con from 0.0192171 ++++++++++++++++++++to 0.0192171
Heightened Def Con from 0.0192371 ++++++++++++++++++++to 0.0192371
Heightened Def Con from 0.0192571 ++++++++++++++++++++to 0.0192571
Heightened Def Con from 0.0192771 ++++++++++++++++++++to 0.0192771
Heightened Def Con from 0.0192971 ++++++++++++++++++++to 0.0192971
Heightened Def Con from 0.0193171 ++++++++++++++++++++to 0.0193171
Heightened Def Con from 0.0193371 ++++++++++++++++++++to 0.0193371
Heightened Def Con from 0.0193571 ++++++++++++++++++++to 0.0193571
Heightened Def Con from 0.0193771 ++++++++++++++++++++to 0.0193771
Heightened Def Con from 0.0193971 ++++++++++++++++++++to 0.0193971
Heightened Def Con from 0.0194171 ++++++++++++++++++++to 0.0194171
Heightened Def Con from 0.0194371 ++++++++++++++++++++to 0.0194371
Heightened Def Con from 0.0194571 ++++++++++++++++++++to 0.0194571
Heightened Def Con from 0.0194771 ++++++++++++++++++++to 0.0194771
Heightened Def Con from 0.0194971 ++++++++++++++++++++to 0.0194971
Heightened Def Con from 0.0195171 ++++++++++++++++++++to 0.0195171
Heightened Def Con from 0.0195371 ++++++++++++++++++++to 0.0195371
Heightened Def Con from 0.0195571 ++++++++++++++++++++to 0.0195571
Heightened Def Con from 0.0195771 ++++++++++++++++++++to 0.0195771
Heightened Def Con from 0.0195971 ++++++++++++++++++++to 0.0195971
Heightened Def Con from 0.0196171 ++++++++++++++++++++to 0.0196171
Heightened Def Con from 0.0196371 ++++++++++++++++++++to 0.0196371
Heightened Def Con from 0.0196571 ++++++++++++++++++++to 0.0196571
Heightened Def Con from 0.0196771 ++++++++++++++++++++to 0.0196771
Heightened Def Con from 0.0196971 ++++++++++++++++++++to 0.0196971
Heightened Def Con from 0.0197171 ++++++++++++++++++++to 0.0197171
Heightened Def Con from 0.0197371 ++++++++++++++++++++to 0.0197371
Heightened Def Con from 0.0197571 ++++++++++++++++++++to 0.0197571
Heightened Def Con from 0.0197771 ++++++++++++++++++++to 0.0197771
Heightened Def Con from 0.0197971 ++++++++++++++++++++to 0.0197971
Heightened Def Con from 0.0198171 ++++++++++++++++++++to 0.0198171
Heightened Def Con from 0.0198371 ++++++++++++++++++++to 0.0198371
Heightened Def Con from 0.0198571 ++++++++++++++++++++to 0.0198571
Heightened Def Con from 0.0198771 ++++++++++++++++++++to 0.0198771
Heightened Def Con from 0.0198971 ++++++++++++++++++++to 0.0198971
Heightened Def Con from 0.0199171 ++++++++++++++++++++to 0.0199171
Heightened Def Con from 0.0199371 ++++++++++++++++++++to 0.0199371
Heightened Def Con from 0.0199571 ++++++++++++++++++++to 0.0199571
Heightened Def Con from 0.0199771 ++++++++++++++++++++to 0.0199771
Heightened Def Con from 0.0199971 ++++++++++++++++++++to 0.0199971
Heightened Def Con from 0.0200171 ++++++++++++++++++++to 0.0200171
Heightened Def Con from 0.0200371 ++++++++++++++++++++to 0.0200371
Heightened Def Con from 0.0200571 ++++++++++++++++++++to 0.0200571
Heightened Def Con from 0.0200771 ++++++++++++++++++++to 0.0200771
Heightened Def Con from 0.0200971 ++++++++++++++++++++to 0.0200971
Heightened Def Con from 0.0201171 ++++++++++++++++++++to 0.0201171
Heightened Def Con from 0.0201371 ++++++++++++++++++++to 0.0201371
Heightened Def Con from 0.0201571 ++++++++++++++++++++to 0.0201571
Heightened Def Con from 0.0201771 ++++++++++++++++++++to 0.0201771
Heightened Def Con from 0.0201971 ++++++++++++++++++++to 0.0201971
Heightened Def Con from 0.0202171 ++++++++++++++++++++to 0.0202171
Heightened Def Con from 0.0202371 ++++++++++++++++++++to 0.0202371
Heightened Def Con from 0.0202571 ++++++++++++++++++++to 0.0202571
Heightened Def Con from 0.0202771 ++++++++++++++++++++to 0.0202771
Heightened Def Con from 0.0202971 ++++++++++++++++++++to 0.0202971
Heightened Def Con from 0.0203171 ++++++++++++++++++++to 0.0203171
Heightened Def Con from 0.0203371 ++++++++++++++++++++to 0.0203371
Heightened Def Con from 0.0203571 ++++++++++++++++++++to 0.0203571
Heightened Def Con from 0.0203771 ++++++++++++++++++++to 0.0203771
Heightened Def Con from 0.0203971 ++++++++++++++++++++to 0.0203971
Heightened Def Con from 0.0204171 ++++++++++++++++++++to 0.0204171
Heightened Def Con from 0.0204371 ++++++++++++++++++++to 0.0204371
Heightened Def Con from 0.0204571 ++++++++++++++++++++to 0.0204571
Heightened Def Con from 0.0204771 ++++++++++++++++++++to 0.0204771
Heightened Def Con from 0.0204971 ++++++++++++++++++++to 0.0204971
Heightened Def Con from 0.0205171 ++++++++++++++++++++to 0.0205171
Heightened Def Con from 0.0205371 ++++++++++++++++++++to 0.0205371
Heightened Def Con from 0.0205571 ++++++++++++++++++++to 0.0205571
Heightened Def Con from 0.0205771 ++++++++++++++++++++to 0.0205771
Heightened Def Con from 0.0205971 ++++++++++++++++++++to 0.0205971
Heightened Def Con from 0.0206171 ++++++++++++++++++++to 0.0206171
Heightened Def Con from 0.0206371 ++++++++++++++++++++to 0.0206371
Heightened Def Con from 0.0206571 ++++++++++++++++++++to 0.0206571
Heightened Def Con from 0.0206771 ++++++++++++++++++++to 0.0206771
Heightened Def Con from 0.0206971 ++++++++++++++++++++to 0.0206971
Heightened Def Con from 0.0207171 ++++++++++++++++++++to 0.0207171
Heightened Def Con from 0.0207371 ++++++++++++++++++++to 0.0207371
Heightened Def Con from 0.0207571 ++++++++++++++++++++to 0.0207571
Heightened Def Con from 0.0207771 ++++++++++++++++++++to 0.0207771
Heightened Def Con from 0.0207971 ++++++++++++++++++++to 0.0207971
Heightened Def Con from 0.0208171 ++++++++++++++++++++to 0.0208171
Heightened Def Con from 0.0208371 ++++++++++++++++++++to 0.0208371
Heightened Def Con from 0.0208571 ++++++++++++++++++++to 0.0208571
Heightened Def Con from 0.0208771 ++++++++++++++++++++to 0.0208771
Heightened Def Con from 0.0208971 ++++++++++++++++++++to 0.0208971
Heightened Def Con from 0.0209171 ++++++++++++++++++++to 0.0209171
Heightened Def Con from 0.0209371 ++++++++++++++++++++to 0.0209371
Heightened Def Con from 0.0209571 ++++++++++++++++++++to 0.0209571
Heightened Def Con from 0.0209771 ++++++++++++++++++++to 0.0209771
Heightened Def Con from 0.0209971 ++++++++++++++++++++to 0.0209971
Heightened Def Con from 0.0210171 ++++++++++++++++++++to 0.0210171
Heightened Def Con from 0.0210371 ++++++++++++++++++++to 0.0210371
Heightened Def Con from 0.0210571 ++++++++++++++++++++to 0.0210571
Heightened Def Con from 0.0210771 ++++++++++++++++++++to 0.0210771
Heightened Def Con from 0.0210971 ++++++++++++++++++++to 0.0210971
Heightened Def Con from 0.0211171 ++++++++++++++++++++to 0.0211171
Heightened Def Con from 0.0211371 ++++++++++++++++++++to 0.0211371
Heightened Def Con from 0.0211571 ++++++++++++++++++++to 0.0211571
Heightened Def Con from 0.0211771 ++++++++++++++++++++to 0.0211771
Heightened Def Con from 0.0211971 ++++++++++++++++++++to 0.0211971
Heightened Def Con from 0.0212171 ++++++++++++++++++++to 0.0212171
Heightened Def Con from 0.0212371 ++++++++++++++++++++to 0.0212371
Heightened Def Con from 0.0212571 ++++++++++++++++++++to 0.0212571
Heightened Def Con from 0.0212771 ++++++++++++++++++++to 0.0212771
Heightened Def Con from 0.0212971 ++++++++++++++++++++to 0.0212971
Heightened Def Con from 0.0213171 ++++++++++++++++++++to 0.0213171
Heightened Def Con from 0.0213371 ++++++++++++++++++++to 0.0213371
Heightened Def Con from 0.0213571 ++++++++++++++++++++to 0.0213571
Heightened Def Con from 0.0213771 ++++++++++++++++++++to 0.0213771
Heightened Def Con from 0.0213971 ++++++++++++++++++++to 0.0213971
Heightened Def Con from 0.0214171 ++++++++++++++++++++to 0.0214171
Heightened Def Con from 0.0214371 ++++++++++++++++++++to 0.0214371
Heightened Def Con from 0.0214571 ++++++++++++++++++++to 0.0214571
Heightened Def Con from 0.0214771 ++++++++++++++++++++to 0.0214771
Heightened Def Con from 0.0214971 ++++++++++++++++++++to 0.0214971
Heightened Def Con from 0.0215171 ++++++++++++++++++++to 0.0215171
Heightened Def Con from 0.0215371 ++++++++++++++++++++to 0.0215371
Heightened Def Con from 0.0215571 ++++++++++++++++++++to 0.0215571
Heightened Def Con from 0.0215771 ++++++++++++++++++++to 0.0215771
Heightened Def Con from 0.0215971 ++++++++++++++++++++to 0.0215971
Heightened Def Con from 0.0216171 ++++++++++++++++++++to 0.0216171
Heightened Def Con from 0.0216371 ++++++++++++++++++++to 0.0216371
Heightened Def Con from 0.0216571 ++++++++++++++++++++to 0.0216571
Heightened Def Con from 0.0216771 ++++++++++++++++++++to 0.0216771
Heightened Def Con from 0.0216971 ++++++++++++++++++++to 0.0216971
Heightened Def Con from 0.0217171 ++++++++++++++++++++to 0.0217171
Heightened Def Con from 0.0217371 ++++++++++++++++++++to 0.0217371
Heightened Def Con from 0.0217571 ++++++++++++++++++++to 0.0217571
Heightened Def Con from 0.0217771 ++++++++++++++++++++to 0.0217771
Heightened Def Con from 0.0217971 ++++++++++++++++++++to 0.0217971
Heightened Def Con from 0.0218171 ++++++++++++++++++++to 0.0218171
Heightened Def Con from 0.0218371 ++++++++++++++++++++to 0.0218371
Heightened Def Con from 0.0218571 ++++++++++++++++++++to 0.0218571
Heightened Def Con from 0.0218771 ++++++++++++++++++++to 0.0218771
Heightened Def Con from 0.0218971 ++++++++++++++++++++to 0.0218971
Heightened Def Con from 0.0219171 ++++++++++++++++++++to 0.0219171
Heightened Def Con from 0.0219371 ++++++++++++++++++++to 0.0219371
Heightened Def Con from 0.0219571 ++++++++++++++++++++to 0.0219571
Heightened Def Con from 0.0219771 ++++++++++++++++++++to 0.0219771
Heightened Def Con from 0.0219971 ++++++++++++++++++++to 0.0219971
Heightened Def Con from 0.0220171 ++++++++++++++++++++to 0.0220171
Heightened Def Con from 0.0220371 ++++++++++++++++++++to 0.0220371
Heightened Def Con from 0.0220571 ++++++++++++++++++++to 0.0220571
Heightened Def Con from 0.0220771 ++++++++++++++++++++to 0.0220771
Heightened Def Con from 0.0220971 ++++++++++++++++++++to 0.0220971
Heightened Def Con from 0.0221171 ++++++++++++++++++++to 0.0221171
Heightened Def Con from 0.0221371 ++++++++++++++++++++to 0.0221371
Heightened Def Con from 0.0221571 ++++++++++++++++++++to 0.0221571
Heightened Def Con from 0.0221771 ++++++++++++++++++++to 0.0221771
Heightened Def Con from 0.0221971 ++++++++++++++++++++to 0.0221971
Heightened Def Con from 0.0222171 ++++++++++++++++++++to 0.0222171
Heightened Def Con from 0.0222371 ++++++++++++++++++++to 0.0222371
Heightened Def Con from 0.0222571 ++++++++++++++++++++to 0.0222571
Heightened Def Con from 0.0222771 ++++++++++++++++++++to 0.0222771
Heightened Def Con from 0.0222971 ++++++++++++++++++++to 0.0222971
Heightened Def Con from 0.0223171 ++++++++++++++++++++to 0.0223171
Heightened Def Con from 0.0223371 ++++++++++++++++++++to 0.0223371
Heightened Def Con from 0.0223571 ++++++++++++++++++++to 0.0223571
Heightened Def Con from 0.0223771 ++++++++++++++++++++to 0.0223771
Heightened Def Con from 0.0223971 ++++++++++++++++++++to 0.0223971
Heightened Def Con from 0.0224171 ++++++++++++++++++++to 0.0224171
Heightened Def Con from 0.0224371 ++++++++++++++++++++to 0.0224371
Heightened Def Con from 0.0224571 ++++++++++++++++++++to 0.0224571
Heightened Def Con from 0.0224771 ++++++++++++++++++++to 0.0224771
Heightened Def Con from 0.0224971 ++++++++++++++++++++to 0.0224971
Heightened Def Con from 0.0225171 ++++++++++++++++++++to 0.0225171
Heightened Def Con from 0.0225371 ++++++++++++++++++++to 0.0225371
Heightened Def Con from 0.0225571 ++++++++++++++++++++to 0.0225571
Heightened Def Con from 0.0225771 ++++++++++++++++++++to 0.0225771
Heightened Def Con from 0.0225971 ++++++++++++++++++++to 0.0225971
Heightened Def Con from 0.0226171 ++++++++++++++++++++to 0.0226171
Heightened Def Con from 0.0226371 ++++++++++++++++++++to 0.0226371
Heightened Def Con from 0.0226571 ++++++++++++++++++++to 0.0226571
Heightened Def Con from 0.0226771 ++++++++++++++++++++to 0.0226771
Heightened Def Con from 0.0226971 ++++++++++++++++++++to 0.0226971
Heightened Def Con from 0.0227171 ++++++++++++++++++++to 0.0227171
Heightened Def Con from 0.0227371 ++++++++++++++++++++to 0.0227371
Heightened Def Con from 0.0227571 ++++++++++++++++++++to 0.0227571
Heightened Def Con from 0.0227771 ++++++++++++++++++++to 0.0227771
Heightened Def Con from 0.0227971 ++++++++++++++++++++to 0.0227971
Heightened Def Con from 0.0228171 ++++++++++++++++++++to 0.0228171
Heightened Def Con from 0.0228371 ++++++++++++++++++++to 0.0228371
Heightened Def Con from 0.0228571 ++++++++++++++++++++to 0.0228571
Heightened Def Con from 0.0228771 ++++++++++++++++++++to 0.0228771
Heightened Def Con from 0.0228971 ++++++++++++++++++++to 0.0228971
Heightened Def Con from 0.0229171 ++++++++++++++++++++to 0.0229171
Heightened Def Con from 0.0229371 ++++++++++++++++++++to 0.0229371
Heightened Def Con from 0.0229571 ++++++++++++++++++++to 0.0229571
Heightened Def Con from 0.0229771 ++++++++++++++++++++to 0.0229771
Heightened Def Con from 0.0229971 ++++++++++++++++++++to 0.0229971
Heightened Def Con from 0.0230171 ++++++++++++++++++++to 0.0230171
Heightened Def Con from 0.0230371 ++++++++++++++++++++to 0.0230371
Heightened Def Con from 0.0230571 ++++++++++++++++++++to 0.0230571
Heightened Def Con from 0.0230771 ++++++++++++++++++++to 0.0230771
Heightened Def Con from 0.0230971 ++++++++++++++++++++to 0.0230971
Heightened Def Con from 0.0231171 ++++++++++++++++++++to 0.0231171
Heightened Def Con from 0.0231371 ++++++++++++++++++++to 0.0231371
Heightened Def Con from 0.0231571 ++++++++++++++++++++to 0.0231571
Heightened Def Con from 0.0231771 ++++++++++++++++++++to 0.0231771
Heightened Def Con from 0.0231971 ++++++++++++++++++++to 0.0231971
Heightened Def Con from 0.0232171 ++++++++++++++++++++to 0.0232171
Heightened Def Con from 0.0232371 ++++++++++++++++++++to 0.0232371
Heightened Def Con from 0.0232571 ++++++++++++++++++++to 0.0232571
[...]
Heightened Def Con from 0.0441571 ++++++++++++++++++++to 0.0441571
Heightened Def Con from 0.0441771 ++++++++++++++++++++to 0.0441771
Heightened Def Con from 0.0441971 ++++++++++++++++++++to 0.0441971
Heightened Def Con from 0.0442171 ++++++++++++++++++++to 0.0442171
Heightened Def Con from 0.0442371 ++++++++++++++++++++to 0.0442371
Heightened Def Con from 0.0442571 ++++++++++++++++++++to 0.0442571
Heightened Def Con from 0.0442771 ++++++++++++++++++++to 0.0442771
Heightened Def Con from 0.0442971 ++++++++++++++++++++to 0.0442971
Heightened Def Con from 0.0443171 ++++++++++++++++++++to 0.0443171
Heightened Def Con from 0.0443371 ++++++++++++++++++++to 0.0443371
Heightened Def Con from 0.0443571 ++++++++++++++++++++to 0.0443571
Heightened Def Con from 0.0443771 ++++++++++++++++++++to 0.0443771
Heightened Def Con from 0.0443971 ++++++++++++++++++++to 0.0443971
Heightened Def Con from 0.0444171 ++++++++++++++++++++to 0.0444171
Heightened Def Con from 0.0444371 ++++++++++++++++++++to 0.0444371
Heightened Def Con from 0.0444571 ++++++++++++++++++++to 0.0444571
Heightened Def Con from 0.0444771 ++++++++++++++++++++to 0.0444771
Heightened Def Con from 0.0444971 ++++++++++++++++++++to 0.0444971
Heightened Def Con from 0.0445171 ++++++++++++++++++++to 0.0445171
Heightened Def Con from 0.0445371 ++++++++++++++++++++to 0.0445371
Heightened Def Con from 0.0445571 ++++++++++++++++++++to 0.0445571
Heightened Def Con from 0.0445771 ++++++++++++++++++++to 0.0445771
Heightened Def Con from 0.0445971 ++++++++++++++++++++to 0.0445971
Heightened Def Con from 0.0446171 ++++++++++++++++++++to 0.0446171
Heightened Def Con from 0.0446371 ++++++++++++++++++++to 0.0446371
Heightened Def Con from 0.0446571 ++++++++++++++++++++to 0.0446571
Heightened Def Con from 0.0446771 ++++++++++++++++++++to 0.0446771
Heightened Def Con from 0.0446971 ++++++++++++++++++++to 0.0446971
Heightened Def Con from 0.0447171 ++++++++++++++++++++to 0.0447171
Heightened Def Con from 0.0447371 ++++++++++++++++++++to 0.0447371
Heightened Def Con from 0.0447571 ++++++++++++++++++++to 0.0447571
Heightened Def Con from 0.0447771 ++++++++++++++++++++to 0.0447771
Heightened Def Con from 0.0447971 ++++++++++++++++++++to 0.0447971
Heightened Def Con from 0.0448171 ++++++++++++++++++++to 0.0448171
Heightened Def Con from 0.0448371 ++++++++++++++++++++to 0.0448371
Heightened Def Con from 0.0448571 ++++++++++++++++++++to 0.0448571
Heightened Def Con from 0.0448771 ++++++++++++++++++++to 0.0448771
Heightened Def Con from 0.0448971 ++++++++++++++++++++to 0.0448971
Heightened Def Con from 0.0449171 ++++++++++++++++++++to 0.0449171
Heightened Def Con from 0.0449371 ++++++++++++++++++++to 0.0449371
Heightened Def Con from 0.0449571 ++++++++++++++++++++to 0.0449571
Heightened Def Con from 0.0449771 ++++++++++++++++++++to 0.0449771
Heightened Def Con from 0.0449971 ++++++++++++++++++++to 0.0449971
Heightened Def Con from 0.0450171 ++++++++++++++++++++to 0.0450171
Heightened Def Con from 0.0450371 ++++++++++++++++++++to 0.0450371
Heightened Def Con from 0.0450571 ++++++++++++++++++++to 0.0450571
Heightened Def Con from 0.0450771 ++++++++++++++++++++to 0.0450771
Heightened Def Con from 0.0450971 ++++++++++++++++++++to 0.0450971
Heightened Def Con from 0.0451171 ++++++++++++++++++++to 0.0451171
Heightened Def Con from 0.0451371 ++++++++++++++++++++to 0.0451371
Heightened Def Con from 0.0451571 ++++++++++++++++++++to 0.0451571
Heightened Def Con from 0.0451771 ++++++++++++++++++++to 0.0451771
Heightened Def Con from 0.0451971 ++++++++++++++++++++to 0.0451971
Heightened Def Con from 0.0452171 ++++++++++++++++++++to 0.0452171
Heightened Def Con from 0.0452371 ++++++++++++++++++++to 0.0452371
Heightened Def Con from 0.0452571 ++++++++++++++++++++to 0.0452571
Heightened Def Con from 0.0452771 ++++++++++++++++++++to 0.0452771
Heightened Def Con from 0.0452971 ++++++++++++++++++++to 0.0452971
Heightened Def Con from 0.0453171 ++++++++++++++++++++to 0.0453171
Heightened Def Con from 0.0453371 ++++++++++++++++++++to 0.0453371
Heightened Def Con from 0.0453571 ++++++++++++++++++++to 0.0453571
Heightened Def Con from 0.0453771 ++++++++++++++++++++to 0.0453771
Heightened Def Con from 0.0453971 ++++++++++++++++++++to 0.0453971
Heightened Def Con from 0.0454171 ++++++++++++++++++++to 0.0454171
Heightened Def Con from 0.0454371 ++++++++++++++++++++to 0.0454371
Heightened Def Con from 0.0454571 ++++++++++++++++++++to 0.0454571
Heightened Def Con from 0.0454771 ++++++++++++++++++++to 0.0454771
Heightened Def Con from 0.0454971 ++++++++++++++++++++to 0.0454971
Heightened Def Con from 0.0455171 ++++++++++++++++++++to 0.0455171
Heightened Def Con from 0.0455371 ++++++++++++++++++++to 0.0455371
Heightened Def Con from 0.0455571 ++++++++++++++++++++to 0.0455571
Heightened Def Con from 0.0455771 ++++++++++++++++++++to 0.0455771
Heightened Def Con from 0.0455971 ++++++++++++++++++++to 0.0455971
Heightened Def Con from 0.0456171 ++++++++++++++++++++to 0.0456171
Heightened Def Con from 0.0456371 ++++++++++++++++++++to 0.0456371
Heightened Def Con from 0.0456571 ++++++++++++++++++++to 0.0456571
Heightened Def Con from 0.0456771 ++++++++++++++++++++to 0.0456771
Heightened Def Con from 0.0456971 ++++++++++++++++++++to 0.0456971
Heightened Def Con from 0.0457171 ++++++++++++++++++++to 0.0457171
Heightened Def Con from 0.0457371 ++++++++++++++++++++to 0.0457371
Heightened Def Con from 0.0457571 ++++++++++++++++++++to 0.0457571
Heightened Def Con from 0.0457771 ++++++++++++++++++++to 0.0457771
Heightened Def Con from 0.0457971 ++++++++++++++++++++to 0.0457971
Heightened Def Con from 0.0458171 ++++++++++++++++++++to 0.0458171
Heightened Def Con from 0.0458371 ++++++++++++++++++++to 0.0458371
Heightened Def Con from 0.0458571 ++++++++++++++++++++to 0.0458571
Heightened Def Con from 0.0458771 ++++++++++++++++++++to 0.0458771
Heightened Def Con from 0.0458971 ++++++++++++++++++++to 0.0458971
Heightened Def Con from 0.0459171 ++++++++++++++++++++to 0.0459171
Heightened Def Con from 0.0459371 ++++++++++++++++++++to 0.0459371
Heightened Def Con from 0.0459571 ++++++++++++++++++++to 0.0459571
Heightened Def Con from 0.0459771 ++++++++++++++++++++to 0.0459771
Heightened Def Con from 0.0459971 ++++++++++++++++++++to 0.0459971
Heightened Def Con from 0.0460171 ++++++++++++++++++++to 0.0460171
Heightened Def Con from 0.0460371 ++++++++++++++++++++to 0.0460371
Heightened Def Con from 0.0460571 ++++++++++++++++++++to 0.0460571
Heightened Def Con from 0.0460771 ++++++++++++++++++++to 0.0460771
Heightened Def Con from 0.0460971 ++++++++++++++++++++to 0.0460971
Heightened Def Con from 0.0461171 ++++++++++++++++++++to 0.0461171
Heightened Def Con from 0.0461371 ++++++++++++++++++++to 0.0461371
Heightened Def Con from 0.0461571 ++++++++++++++++++++to 0.0461571
Heightened Def Con from 0.0461771 ++++++++++++++++++++to 0.0461771
Heightened Def Con from 0.0461971 ++++++++++++++++++++to 0.0461971
Heightened Def Con from 0.0462171 ++++++++++++++++++++to 0.0462171
Heightened Def Con from 0.0462371 ++++++++++++++++++++to 0.0462371
Heightened Def Con from 0.0462571 ++++++++++++++++++++to 0.0462571
Heightened Def Con from 0.0462771 ++++++++++++++++++++to 0.0462771
Heightened Def Con from 0.0462971 ++++++++++++++++++++to 0.0462971
Heightened Def Con from 0.0463171 ++++++++++++++++++++to 0.0463171
Heightened Def Con from 0.0463371 ++++++++++++++++++++to 0.0463371
Heightened Def Con from 0.0463571 ++++++++++++++++++++to 0.0463571
Heightened Def Con from 0.0463771 ++++++++++++++++++++to 0.0463771
Heightened Def Con from 0.0463971 ++++++++++++++++++++to 0.0463971
Heightened Def Con from 0.0464171 ++++++++++++++++++++to 0.0464171
Heightened Def Con from 0.0464371 ++++++++++++++++++++to 0.0464371
Heightened Def Con from 0.0464571 ++++++++++++++++++++to 0.0464571
Heightened Def Con from 0.0464771 ++++++++++++++++++++to 0.0464771
Heightened Def Con from 0.0464971 ++++++++++++++++++++to 0.0464971
Heightened Def Con from 0.0465171 ++++++++++++++++++++to 0.0465171
Heightened Def Con from 0.0465371 ++++++++++++++++++++to 0.0465371
Heightened Def Con from 0.0465571 ++++++++++++++++++++to 0.0465571
Heightened Def Con from 0.0465771 ++++++++++++++++++++to 0.0465771
Heightened Def Con from 0.0465971 ++++++++++++++++++++to 0.0465971
Heightened Def Con from 0.0466171 ++++++++++++++++++++to 0.0466171
Heightened Def Con from 0.0466371 ++++++++++++++++++++to 0.0466371
Heightened Def Con from 0.0466571 ++++++++++++++++++++to 0.0466571
Heightened Def Con from 0.0466771 ++++++++++++++++++++to 0.0466771
Heightened Def Con from 0.0466971 ++++++++++++++++++++to 0.0466971
Heightened Def Con from 0.0467171 ++++++++++++++++++++to 0.0467171
Heightened Def Con from 0.0467371 ++++++++++++++++++++to 0.0467371
Heightened Def Con from 0.0467571 ++++++++++++++++++++to 0.0467571
Heightened Def Con from 0.0467771 ++++++++++++++++++++to 0.0467771
Heightened Def Con from 0.0467971 ++++++++++++++++++++to 0.0467971
Heightened Def Con from 0.0468171 ++++++++++++++++++++to 0.0468171
Heightened Def Con from 0.0468371 ++++++++++++++++++++to 0.0468371
Heightened Def Con from 0.0468571 ++++++++++++++++++++to 0.0468571
Heightened Def Con from 0.0468771 ++++++++++++++++++++to 0.0468771
Heightened Def Con from 0.0468971 ++++++++++++++++++++to 0.0468971
Heightened Def Con from 0.0469171 ++++++++++++++++++++to 0.0469171
Heightened Def Con from 0.0469371 ++++++++++++++++++++to 0.0469371
Heightened Def Con from 0.0469571 ++++++++++++++++++++to 0.0469571
Heightened Def Con from 0.0469771 ++++++++++++++++++++to 0.0469771
Heightened Def Con from 0.0469971 ++++++++++++++++++++to 0.0469971
Heightened Def Con from 0.0470171 ++++++++++++++++++++to 0.0470171
Heightened Def Con from 0.0470371 ++++++++++++++++++++to 0.0470371
Heightened Def Con from 0.0470571 ++++++++++++++++++++to 0.0470571
Heightened Def Con from 0.0470771 ++++++++++++++++++++to 0.0470771
Heightened Def Con from 0.0470971 ++++++++++++++++++++to 0.0470971
Heightened Def Con from 0.0471171 ++++++++++++++++++++to 0.0471171
Heightened Def Con from 0.0471371 ++++++++++++++++++++to 0.0471371
Heightened Def Con from 0.0471571 ++++++++++++++++++++to 0.0471571
Heightened Def Con from 0.0471771 ++++++++++++++++++++to 0.0471771
Heightened Def Con from 0.0471971 ++++++++++++++++++++to 0.0471971
Heightened Def Con from 0.0472171 ++++++++++++++++++++to 0.0472171
Heightened Def Con from 0.0472371 ++++++++++++++++++++to 0.0472371
Heightened Def Con from 0.0472571 ++++++++++++++++++++to 0.0472571
Heightened Def Con from 0.0472771 ++++++++++++++++++++to 0.0472771
Heightened Def Con from 0.0472971 ++++++++++++++++++++to 0.0472971
Heightened Def Con from 0.0473171 ++++++++++++++++++++to 0.0473171
Heightened Def Con from 0.0473371 ++++++++++++++++++++to 0.0473371
Heightened Def Con from 0.0473571 ++++++++++++++++++++to 0.0473571
Heightened Def Con from 0.0473771 ++++++++++++++++++++to 0.0473771
Heightened Def Con from 0.0473971 ++++++++++++++++++++to 0.0473971
Heightened Def Con from 0.0474171 ++++++++++++++++++++to 0.0474171
Heightened Def Con from 0.0474371 ++++++++++++++++++++to 0.0474371
Heightened Def Con from 0.0474571 ++++++++++++++++++++to 0.0474571
Heightened Def Con from 0.0474771 ++++++++++++++++++++to 0.0474771
Heightened Def Con from 0.0474971 ++++++++++++++++++++to 0.0474971
Heightened Def Con from 0.0475171 ++++++++++++++++++++to 0.0475171
Heightened Def Con from 0.0475371 ++++++++++++++++++++to 0.0475371
Heightened Def Con from 0.0475571 ++++++++++++++++++++to 0.0475571
Heightened Def Con from 0.0475771 ++++++++++++++++++++to 0.0475771
Heightened Def Con from 0.0475971 ++++++++++++++++++++to 0.0475971
Heightened Def Con from 0.0476171 ++++++++++++++++++++to 0.0476171
Heightened Def Con from 0.0476371 ++++++++++++++++++++to 0.0476371
Heightened Def Con from 0.0476571 ++++++++++++++++++++to 0.0476571
Heightened Def Con from 0.0476771 ++++++++++++++++++++to 0.0476771
Heightened Def Con from 0.0476971 ++++++++++++++++++++to 0.0476971
Heightened Def Con from 0.0477171 ++++++++++++++++++++to 0.0477171
Heightened Def Con from 0.0477371 ++++++++++++++++++++to 0.0477371
Heightened Def Con from 0.0477571 ++++++++++++++++++++to 0.0477571
Heightened Def Con from 0.0477771 ++++++++++++++++++++to 0.0477771
Heightened Def Con from 0.0477971 ++++++++++++++++++++to 0.0477971
Heightened Def Con from 0.0478171 ++++++++++++++++++++to 0.0478171
Heightened Def Con from 0.0478371 ++++++++++++++++++++to 0.0478371
Heightened Def Con from 0.0478571 ++++++++++++++++++++to 0.0478571
Heightened Def Con from 0.0478771 ++++++++++++++++++++to 0.0478771
Heightened Def Con from 0.0478971 ++++++++++++++++++++to 0.0478971
Heightened Def Con from 0.0479171 ++++++++++++++++++++to 0.0479171
Heightened Def Con from 0.0479371 ++++++++++++++++++++to 0.0479371
Heightened Def Con from 0.0479571 ++++++++++++++++++++to 0.0479571
Heightened Def Con from 0.0479771 ++++++++++++++++++++to 0.0479771
Heightened Def Con from 0.0479971 ++++++++++++++++++++to 0.0479971
Heightened Def Con from 0.0480171 ++++++++++++++++++++to 0.0480171
Heightened Def Con from 0.0480371 ++++++++++++++++++++to 0.0480371
Heightened Def Con from 0.0480571 ++++++++++++++++++++to 0.0480571
Heightened Def Con from 0.0480771 ++++++++++++++++++++to 0.0480771
Heightened Def Con from 0.0480971 ++++++++++++++++++++to 0.0480971
Heightened Def Con from 0.0481171 ++++++++++++++++++++to 0.0481171
Heightened Def Con from 0.0481371 ++++++++++++++++++++to 0.0481371
Heightened Def Con from 0.0481571 ++++++++++++++++++++to 0.0481571
Heightened Def Con from 0.0481771 ++++++++++++++++++++to 0.0481771
Heightened Def Con from 0.0481971 ++++++++++++++++++++to 0.0481971
Heightened Def Con from 0.0482171 ++++++++++++++++++++to 0.0482171
Heightened Def Con from 0.0482371 ++++++++++++++++++++to 0.0482371
Heightened Def Con from 0.0482571 ++++++++++++++++++++to 0.0482571
Heightened Def Con from 0.0482771 ++++++++++++++++++++to 0.0482771
Heightened Def Con from 0.0482971 ++++++++++++++++++++to 0.0482971
Heightened Def Con from 0.0483171 ++++++++++++++++++++to 0.0483171
Heightened Def Con from 0.0483371 ++++++++++++++++++++to 0.0483371
Heightened Def Con from 0.0483571 ++++++++++++++++++++to 0.0483571
Heightened Def Con from 0.0483771 ++++++++++++++++++++to 0.0483771
Heightened Def Con from 0.0483971 ++++++++++++++++++++to 0.0483971
Heightened Def Con from 0.0484171 ++++++++++++++++++++to 0.0484171
Heightened Def Con from 0.0484371 ++++++++++++++++++++to 0.0484371
Heightened Def Con from 0.0484571 ++++++++++++++++++++to 0.0484571
Heightened Def Con from 0.0484771 ++++++++++++++++++++to 0.0484771
Heightened Def Con from 0.0484971 ++++++++++++++++++++to 0.0484971
Heightened Def Con from 0.0485171 ++++++++++++++++++++to 0.0485171
Heightened Def Con from 0.0485371 ++++++++++++++++++++to 0.0485371
Heightened Def Con from 0.0485571 ++++++++++++++++++++to 0.0485571
Heightened Def Con from 0.0485771 ++++++++++++++++++++to 0.0485771
Heightened Def Con from 0.0485971 ++++++++++++++++++++to 0.0485971
Heightened Def Con from 0.0486171 ++++++++++++++++++++to 0.0486171
Heightened Def Con from 0.0486371 ++++++++++++++++++++to 0.0486371
Heightened Def Con from 0.0486571 ++++++++++++++++++++to 0.0486571
Heightened Def Con from 0.0486771 ++++++++++++++++++++to 0.0486771
Heightened Def Con from 0.0486971 ++++++++++++++++++++to 0.0486971
Heightened Def Con from 0.0487171 ++++++++++++++++++++to 0.0487171
Heightened Def Con from 0.0487371 ++++++++++++++++++++to 0.0487371
Heightened Def Con from 0.0487571 ++++++++++++++++++++to 0.0487571
Heightened Def Con from 0.0487771 ++++++++++++++++++++to 0.0487771
Heightened Def Con from 0.0487971 ++++++++++++++++++++to 0.0487971
Heightened Def Con from 0.0488171 ++++++++++++++++++++to 0.0488171
Heightened Def Con from 0.0488371 ++++++++++++++++++++to 0.0488371
Heightened Def Con from 0.0488571 ++++++++++++++++++++to 0.0488571
Heightened Def Con from 0.0488771 ++++++++++++++++++++to 0.0488771
Heightened Def Con from 0.0488971 ++++++++++++++++++++to 0.0488971
Heightened Def Con from 0.0489171 ++++++++++++++++++++to 0.0489171
Heightened Def Con from 0.0489371 ++++++++++++++++++++to 0.0489371
Heightened Def Con from 0.0489571 ++++++++++++++++++++to 0.0489571
Heightened Def Con from 0.0489771 ++++++++++++++++++++to 0.0489771
Heightened Def Con from 0.0489971 ++++++++++++++++++++to 0.0489971
Heightened Def Con from 0.0490171 ++++++++++++++++++++to 0.0490171
Heightened Def Con from 0.0490371 ++++++++++++++++++++to 0.0490371
Heightened Def Con from 0.0490571 ++++++++++++++++++++to 0.0490571
Heightened Def Con from 0.0490771 ++++++++++++++++++++to 0.0490771
Heightened Def Con from 0.0490971 ++++++++++++++++++++to 0.0490971
Heightened Def Con from 0.0491171 ++++++++++++++++++++to 0.0491171
Heightened Def Con from 0.0491371 ++++++++++++++++++++to 0.0491371
Heightened Def Con from 0.0491571 ++++++++++++++++++++to 0.0491571
Heightened Def Con from 0.0491771 ++++++++++++++++++++to 0.0491771
Heightened Def Con from 0.0491971 ++++++++++++++++++++to 0.0491971
Heightened Def Con from 0.0492171 ++++++++++++++++++++to 0.0492171
Heightened Def Con from 0.0492371 ++++++++++++++++++++to 0.0492371
Heightened Def Con from 0.0492571 ++++++++++++++++++++to 0.0492571
Heightened Def Con from 0.0492771 ++++++++++++++++++++to 0.0492771
Heightened Def Con from 0.0492971 ++++++++++++++++++++to 0.0492971
Heightened Def Con from 0.0493171 ++++++++++++++++++++to 0.0493171
Heightened Def Con from 0.0493371 ++++++++++++++++++++to 0.0493371
Heightened Def Con from 0.0493571 ++++++++++++++++++++to 0.0493571
Heightened Def Con from 0.0493771 ++++++++++++++++++++to 0.0493771
Heightened Def Con from 0.0493971 ++++++++++++++++++++to 0.0493971
Heightened Def Con from 0.0494171 ++++++++++++++++++++to 0.0494171
Heightened Def Con from 0.0494371 ++++++++++++++++++++to 0.0494371
Heightened Def Con from 0.0494571 ++++++++++++++++++++to 0.0494571
Heightened Def Con from 0.0494771 ++++++++++++++++++++to 0.0494771
Heightened Def Con from 0.0494971 ++++++++++++++++++++to 0.0494971
Heightened Def Con from 0.0495171 ++++++++++++++++++++to 0.0495171
Heightened Def Con from 0.0495371 ++++++++++++++++++++to 0.0495371
Heightened Def Con from 0.0495571 ++++++++++++++++++++to 0.0495571
Heightened Def Con from 0.0495771 ++++++++++++++++++++to 0.0495771
Heightened Def Con from 0.0495971 ++++++++++++++++++++to 0.0495971
Heightened Def Con from 0.0496171 ++++++++++++++++++++to 0.0496171
Heightened Def Con from 0.0496371 ++++++++++++++++++++to 0.0496371
Heightened Def Con from 0.0496571 ++++++++++++++++++++to 0.0496571
Heightened Def Con from 0.0496771 ++++++++++++++++++++to 0.0496771
Heightened Def Con from 0.0496971 ++++++++++++++++++++to 0.0496971
Heightened Def Con from 0.0497171 ++++++++++++++++++++to 0.0497171
Heightened Def Con from 0.0497371 ++++++++++++++++++++to 0.0497371
Heightened Def Con from 0.0497571 ++++++++++++++++++++to 0.0497571
Heightened Def Con from 0.0497771 ++++++++++++++++++++to 0.0497771
Heightened Def Con from 0.0497971 ++++++++++++++++++++to 0.0497971
Heightened Def Con from 0.0498171 ++++++++++++++++++++to 0.0498171
Heightened Def Con from 0.0498371 ++++++++++++++++++++to 0.0498371
Heightened Def Con from 0.0498571 ++++++++++++++++++++to 0.0498571
Heightened Def Con from 0.0498771 ++++++++++++++++++++to 0.0498771
Heightened Def Con from 0.0498971 ++++++++++++++++++++to 0.0498971
Heightened Def Con from 0.0499171 ++++++++++++++++++++to 0.0499171
Heightened Def Con from 0.0499371 ++++++++++++++++++++to 0.0499371
Heightened Def Con from 0.0499571 ++++++++++++++++++++to 0.0499571
Heightened Def Con from 0.0499771 ++++++++++++++++++++to 0.0499771
Heightened Def Con from 0.0499971 ++++++++++++++++++++to 0.0499971

Date: Thu Mar 11 16:51:42 2021
Total elapsed time: 4.783 seconds.

tnom = 27
temp = 27
method = modified trap
totiter = 5984039
traniter = 5984033
tranpoints = 707967
accept = 223069
rejected = 537554
matrix size = 6
fillins = 0
solver = Normal
Matrix Compiler1:       8 opcodes  0.0/[0.0]/0.1
Matrix Compiler2: 326 bytes object code size  0.0/0.1/[0.0]

